
     RDKit          3D

 20 20  0  0  0  0  0  0  0  0999 V2000
   25.0999   34.4100  106.3998 C   0  0  0  0  0  0  0  0  0  0  0  0
   25.3759   34.5187  105.1490 N   0  0  0  0  0  0  0  0  0  0  0  0
   26.5663   34.9726  104.6595 C   0  0  0  0  0  0  0  0  0  0  0  0
   24.6014   33.9272  104.0423 C   0  0  0  0  0  0  0  0  0  0  0  0
   25.1708   34.1408  102.7619 C   0  0  0  0  0  0  0  0  0  0  0  0
   27.6018   35.1929  105.3483 O   0  0  0  0  0  0  0  0  0  0  0  0
   26.6490   34.8268  103.0914 C   0  0  0  0  0  0  0  0  0  0  0  0
   23.5596   33.3094  104.1894 O   0  0  0  0  0  0  0  0  0  0  0  0
   23.8399   34.4609  106.7753 O   0  0  0  0  0  0  0  0  0  0  0  0
   25.9913   34.6573  107.4712 C   0  0  0  0  0  0  0  0  0  0  0  0
   27.7387   34.0005  102.6242 C   0  0  0  0  0  0  0  0  0  0  0  0
   26.7179   36.1245  102.5749 C   0  0  0  0  0  0  0  0  0  0  0  0
   29.0554   34.3285  103.3589 N   0  0  0  0  0  0  0  0  0  0  0  0
   27.8070   36.7372  102.5965 O   0  0  0  0  0  0  0  0  0  0  0  0
   25.6511   36.7348  101.9706 O   0  0  0  0  0  0  0  0  0  0  0  0
   30.1984   33.6502  102.8402 C   0  0  0  0  0  0  0  0  0  0  0  0
   30.3540   33.1693  101.7577 O   0  0  0  0  0  0  0  0  0  0  0  0
   31.4258   34.0949  103.5832 C   0  0  0  0  0  0  0  0  0  0  0  0
   32.5959   33.9555  102.9506 O   0  0  0  0  0  0  0  0  0  0  0  0
   31.7287   33.3253  104.8573 C   0  0  0  0  0  0  0  0  0  0  0  0
  1  2  1  0
  2  3  1  0
  2  4  1  0
  4  5  1  0
  3  6  2  0
  3  7  1  0
  5  7  1  0
  4  8  2  0
  1  9  2  0
  1 10  1  0
  7 11  1  0
  7 12  1  0
 11 13  1  0
 12 14  2  0
 12 15  1  0
 13 16  1  0
 16 17  2  0
 16 18  1  0
 18 19  1  0
 18 20  1  0
M  END
>  <generation_time>  (1) 
1.7359330654144287

$$$$

     RDKit          3D

 17 18  0  0  0  0  0  0  0  0999 V2000
   32.3195   33.8369  102.7330 O   0  0  0  0  0  0  0  0  0  0  0  0
   31.7895   33.8762  103.9333 C   0  0  0  0  0  0  0  0  0  0  0  0
   30.4650   34.5443  103.8845 C   0  0  0  0  0  0  0  0  0  0  0  0
   30.3349   35.9233  103.8763 C   0  0  0  0  0  0  0  0  0  0  0  0
   29.2672   33.8232  104.0863 C   0  0  0  0  0  0  0  0  0  0  0  0
   29.0507   36.4398  103.6424 N   0  0  0  0  0  0  0  0  0  0  0  0
   28.0202   34.2961  103.9142 N   0  0  0  0  0  0  0  0  0  0  0  0
   26.8198   33.6157  104.0362 N   0  0  0  0  0  0  0  0  0  0  0  0
   27.9502   35.6829  103.7267 C   0  0  0  0  0  0  0  0  0  0  0  0
   26.5308   35.9597  103.6331 N   0  0  0  0  0  0  0  0  0  0  0  0
   25.9078   34.7012  103.7928 C   0  0  0  0  0  0  0  0  0  0  0  0
   24.4070   34.4504  103.7343 C   0  0  0  0  0  0  0  0  0  0  0  0
   23.8055   35.0802  104.7474 C   0  0  0  0  0  0  0  0  0  0  0  0
   23.8172   36.2078  105.0585 O   0  0  0  0  0  0  0  0  0  0  0  0
   22.8941   34.3721  105.6115 N   0  0  0  0  0  0  0  0  0  0  0  0
   22.1629   35.0155  106.7097 C   0  0  0  0  0  0  0  0  0  0  0  0
   23.0760   32.9321  105.9033 C   0  0  0  0  0  0  0  0  0  0  0  0
  1  2  1  0
  2  3  1  0
  3  4  2  0
  3  5  1  0
  4  6  1  0
  5  7  2  0
  7  8  1  0
  6  9  2  0
  7  9  1  0
  9 10  1  0
  8 11  2  0
 10 11  1  0
 11 12  1  0
 12 13  1  0
 13 14  2  0
 13 15  1  0
 15 16  1  0
 15 17  1  0
M  END
>  <generation_time>  (2) 
1.0961384773254395

$$$$

     RDKit          3D

 19 20  0  0  0  0  0  0  0  0999 V2000
   31.0843   35.3384  103.3879 N   0  0  0  0  0  0  0  0  0  0  0  0
   31.6170   34.1449  103.5469 C   0  0  0  0  0  0  0  0  0  0  0  0
   32.3476   33.8268  104.3866 O   0  0  0  0  0  0  0  0  0  0  0  0
   30.7715   33.0762  103.0419 C   0  0  0  0  0  0  0  0  0  0  0  0
   29.7947   35.6804  103.0673 C   0  0  0  0  0  0  0  0  0  0  0  0
   29.2594   33.3368  102.9510 C   0  0  0  0  0  0  0  0  0  0  0  0
   28.8143   34.7214  103.1358 N   0  0  0  0  0  0  0  0  0  0  0  0
   27.5460   35.1541  102.9298 C   0  0  0  0  0  0  0  0  0  0  0  0
   29.3562   36.9096  103.4733 O   0  0  0  0  0  0  0  0  0  0  0  0
   26.6439   34.5608  103.9678 C   0  0  0  0  0  0  0  0  0  0  0  0
   25.3271   34.3584  103.5123 C   0  0  0  0  0  0  0  0  0  0  0  0
   26.9224   34.4793  105.3093 C   0  0  0  0  0  0  0  0  0  0  0  0
   26.0719   33.9616  106.2425 C   0  0  0  0  0  0  0  0  0  0  0  0
   24.8730   34.5526  102.1888 F   0  0  0  0  0  0  0  0  0  0  0  0
   24.3519   33.8650  104.4787 C   0  0  0  0  0  0  0  0  0  0  0  0
   23.0216   33.5105  104.0030 O   0  0  0  0  0  0  0  0  0  0  0  0
   22.2925   32.8271  104.8870 C   0  0  0  0  0  0  0  0  0  0  0  0
   24.7377   33.6472  105.8074 C   0  0  0  0  0  0  0  0  0  0  0  0
   26.2766   33.9093  107.6863 O   0  0  0  0  0  0  0  0  0  0  0  0
  1  2  1  0
  2  3  2  0
  2  4  1  0
  1  5  1  0
  4  6  1  0
  5  7  1  0
  6  7  1  0
  7  8  1  0
  5  9  2  0
  8 10  1  0
 10 11  1  0
 10 12  2  0
 12 13  1  0
 11 14  1  0
 11 15  2  0
 15 16  1  0
 16 17  1  0
 13 18  2  0
 15 18  1  0
 13 19  1  0
M  END
>  <generation_time>  (3) 
1.224635124206543

$$$$

     RDKit          3D

 18 19  0  0  0  0  0  0  0  0999 V2000
   25.1150   33.7082  103.4041 C   0  0  0  0  0  0  0  0  0  0  0  0
   25.7292   34.7715  103.2438 C   0  0  0  0  0  0  0  0  0  0  0  0
   25.6518   32.6625  104.0708 C   0  0  0  0  0  0  0  0  0  0  0  0
   24.8716   31.4662  104.3065 C   0  0  0  0  0  0  0  0  0  0  0  0
   27.1012   34.9166  103.5706 N   0  0  0  0  0  0  0  0  0  0  0  0
   27.8371   35.8310  103.6793 C   0  0  0  0  0  0  0  0  0  0  0  0
   25.2163   35.8804  102.6754 O   0  0  0  0  0  0  0  0  0  0  0  0
   29.3243   35.5149  103.8390 C   0  0  0  0  0  0  0  0  0  0  0  0
   23.5062   31.5538  103.9415 C   0  0  0  0  0  0  0  0  0  0  0  0
   22.8898   32.6842  103.5386 C   0  0  0  0  0  0  0  0  0  0  0  0
   29.8012   34.3102  104.1515 C   0  0  0  0  0  0  0  0  0  0  0  0
   23.6765   33.7962  103.2815 C   0  0  0  0  0  0  0  0  0  0  0  0
   30.0198   36.5806  103.9106 O   0  0  0  0  0  0  0  0  0  0  0  0
   30.3910   33.6643  103.0175 C   0  0  0  0  0  0  0  0  0  0  0  0
   30.8221   34.3910  105.2933 C   0  0  0  0  0  0  0  0  0  0  0  0
   32.1066   33.9497  104.7379 C   0  0  0  0  0  0  0  0  0  0  0  0
   31.8997   33.6862  103.3066 C   0  0  0  0  0  0  0  0  0  0  0  0
   32.4276   34.5960  102.4194 O   0  0  0  0  0  0  0  0  0  0  0  0
  1  2  1  0
  1  3  2  0
  3  4  1  0
  2  5  1  0
  5  6  1  0
  2  7  2  0
  6  8  1  0
  4  9  2  0
  9 10  1  0
  8 11  1  0
  1 12  1  0
 10 12  2  0
  8 13  2  0
 11 14  1  0
 11 15  1  0
 15 16  1  0
 14 17  1  0
 16 17  1  0
 17 18  1  0
M  END
>  <generation_time>  (4) 
1.2164044380187988

$$$$

     RDKit          3D

 16 15  0  0  0  0  0  0  0  0999 V2000
   24.9321   35.2126  105.1798 C   0  0  0  0  0  0  0  0  0  0  0  0
   25.3982   34.6852  104.0654 C   0  0  0  0  0  0  0  0  0  0  0  0
   23.7596   35.2542  105.3780 O   0  0  0  0  0  0  0  0  0  0  0  0
   26.6178   35.0777  103.4557 C   0  0  0  0  0  0  0  0  0  0  0  0
   24.5783   33.7708  103.3096 C   0  0  0  0  0  0  0  0  0  0  0  0
   25.6982   35.2975  106.2770 O   0  0  0  0  0  0  0  0  0  0  0  0
   27.8324   34.6026  103.9050 N   0  0  0  0  0  0  0  0  0  0  0  0
   23.6952   32.9050  103.9857 N   0  0  0  0  0  0  0  0  0  0  0  0
   28.9357   35.0227  103.8770 C   0  0  0  0  0  0  0  0  0  0  0  0
   30.0429   34.2411  104.3392 C   0  0  0  0  0  0  0  0  0  0  0  0
   29.0370   36.3999  103.6884 O   0  0  0  0  0  0  0  0  0  0  0  0
   26.5890   35.9741  102.4173 O   0  0  0  0  0  0  0  0  0  0  0  0
   31.1611   34.2706  103.2913 C   0  0  0  0  0  0  0  0  0  0  0  0
   30.5981   34.5900  105.6382 C   0  0  0  0  0  0  0  0  0  0  0  0
   32.4106   33.9844  103.6591 O   0  0  0  0  0  0  0  0  0  0  0  0
   31.2714   35.3473  102.6241 O   0  0  0  0  0  0  0  0  0  0  0  0
  1  2  1  0
  1  3  2  0
  2  4  1  0
  2  5  2  3
  1  6  1  0
  4  7  1  0
  5  8  1  0
  7  9  1  0
  9 10  1  0
  9 11  2  0
  4 12  2  0
 10 13  1  0
 10 14  1  0
 13 15  1  0
 13 16  1  0
M  END
>  <generation_time>  (5) 
1.0982072353363037

$$$$

     RDKit          3D

 14 14  0  0  0  0  0  0  0  0999 V2000
   31.3181   33.2338  102.9631 C   0  0  0  0  0  0  0  0  0  0  0  0
   30.8241   34.1962  103.6974 C   0  0  0  0  0  0  0  0  0  0  0  0
   32.7077   33.2496  102.6962 O   0  0  0  0  0  0  0  0  0  0  0  0
   31.6984   35.0425  104.3188 O   0  0  0  0  0  0  0  0  0  0  0  0
   29.7361   33.9413  104.5385 C   0  0  0  0  0  0  0  0  0  0  0  0
   28.3978   34.6527  104.1896 N   0  0  0  0  0  0  0  0  0  0  0  0
   28.3709   35.8587  103.6294 C   0  0  0  0  0  0  0  0  0  0  0  0
   29.3364   36.6334  103.6435 O   0  0  0  0  0  0  0  0  0  0  0  0
   27.0247   36.2091  103.4248 N   0  0  0  0  0  0  0  0  0  0  0  0
   27.2826   33.8485  104.2811 C   0  0  0  0  0  0  0  0  0  0  0  0
   26.1314   34.3861  103.7273 C   0  0  0  0  0  0  0  0  0  0  0  0
   26.0645   35.5119  103.2456 C   0  0  0  0  0  0  0  0  0  0  0  0
   25.0265   35.8671  102.6282 O   0  0  0  0  0  0  0  0  0  0  0  0
   24.8803   33.5419  103.9344 C   0  0  0  0  0  0  0  0  0  0  0  0
  1  2  1  0
  1  3  1  0
  2  4  1  0
  2  5  1  0
  5  6  1  0
  6  7  1  0
  7  8  2  0
  7  9  1  0
  6 10  1  0
 10 11  2  0
  9 12  1  0
 11 12  1  0
 12 13  2  0
 11 14  1  0
M  END
>  <generation_time>  (6) 
0.9531700611114502

$$$$

     RDKit          3D

 18 19  0  0  0  0  0  0  0  0999 V2000
   29.7048   33.9860  103.9617 C   0  0  0  0  0  0  0  0  0  0  0  0
   31.0651   34.1960  103.9152 C   0  0  0  0  0  0  0  0  0  0  0  0
   28.9129   35.1001  103.7354 N   0  0  0  0  0  0  0  0  0  0  0  0
   27.5746   35.1620  103.8037 C   0  0  0  0  0  0  0  0  0  0  0  0
   26.8322   35.6571  102.9158 N   0  0  0  0  0  0  0  0  0  0  0  0
   27.0923   34.3743  104.8566 N   0  0  0  0  0  0  0  0  0  0  0  0
   31.7652   33.9231  105.0306 C   0  0  0  0  0  0  0  0  0  0  0  0
   25.4659   35.4777  102.9003 C   0  0  0  0  0  0  0  0  0  0  0  0
   31.3434   35.5401  103.3182 O   0  0  0  0  0  0  0  0  0  0  0  0
   25.6683   34.4774  105.2000 C   0  0  0  0  0  0  0  0  0  0  0  0
   29.3970   36.4026  103.4885 C   0  0  0  0  0  0  0  0  0  0  0  0
   24.8880   35.0186  104.1333 C   0  0  0  0  0  0  0  0  0  0  0  0
   24.8107   35.8255  101.9328 O   0  0  0  0  0  0  0  0  0  0  0  0
   31.8012   33.2483  102.8172 C   0  0  0  0  0  0  0  0  0  0  0  0
   30.7167   36.5774  103.7636 C   0  0  0  0  0  0  0  0  0  0  0  0
   25.1570   33.8750  106.3477 C   0  0  0  0  0  0  0  0  0  0  0  0
   25.5869   34.6479  107.5503 N   0  0  0  0  0  0  0  0  0  0  0  0
   23.9551   33.5335  106.4489 O   0  0  0  0  0  0  0  0  0  0  0  0
  1  2  1  0
  1  3  1  0
  3  4  1  0
  4  5  1  0
  4  6  2  0
  2  7  1  0
  5  8  1  0
  2  9  1  0
  6 10  1  0
  3 11  1  0
  8 12  1  0
 10 12  2  0
  8 13  2  0
  2 14  1  0
  9 15  1  0
 11 15  1  0
 10 16  1  0
 16 17  1  0
 16 18  2  0
M  END
>  <generation_time>  (7) 
1.4319126605987549

$$$$

     RDKit          3D

 18 19  0  0  0  0  0  0  0  0999 V2000
   31.9354   33.2217  102.7778 O   0  0  0  0  0  0  0  0  0  0  0  0
   31.8172   33.7247  103.9357 C   0  0  0  0  0  0  0  0  0  0  0  0
   32.5869   33.6514  104.8105 O   0  0  0  0  0  0  0  0  0  0  0  0
   30.6108   34.6714  104.0176 C   0  0  0  0  0  0  0  0  0  0  0  0
   29.4102   34.3675  104.2142 C   0  0  0  0  0  0  0  0  0  0  0  0
   28.2934   35.2765  104.0403 C   0  0  0  0  0  0  0  0  0  0  0  0
   30.8916   35.9435  103.5215 C   0  0  0  0  0  0  0  0  0  0  0  0
   26.8996   34.8451  104.3005 C   0  0  0  0  0  0  0  0  0  0  0  0
   28.6397   36.4945  103.5854 C   0  0  0  0  0  0  0  0  0  0  0  0
   30.0450   36.8338  103.3445 N   0  0  0  0  0  0  0  0  0  0  0  0
   26.0357   34.4858  103.3377 C   0  0  0  0  0  0  0  0  0  0  0  0
   26.2195   35.6742  105.2038 O   0  0  0  0  0  0  0  0  0  0  0  0
   25.3640   34.9945  106.1104 C   0  0  0  0  0  0  0  0  0  0  0  0
   25.8298   34.4545  107.1595 C   0  0  0  0  0  0  0  0  0  0  0  0
   24.3811   34.1070  105.1377 C   0  0  0  0  0  0  0  0  0  0  0  0
   24.8608   33.6892  103.8515 C   0  0  0  0  0  0  0  0  0  0  0  0
   26.6318   33.5202  107.1188 O   0  0  0  0  0  0  0  0  0  0  0  0
   25.4504   34.9886  108.2624 O   0  0  0  0  0  0  0  0  0  0  0  0
  1  2  2  0
  2  3  1  0
  2  4  1  0
  4  5  2  0
  5  6  1  0
  4  7  1  0
  6  8  1  0
  6  9  2  0
  7 10  2  0
  9 10  1  0
  8 11  1  0
  8 12  1  0
 12 13  1  0
 13 14  1  0
 13 15  1  0
 11 16  1  0
 15 16  1  0
 14 17  2  0
 14 18  1  0
M  END
>  <generation_time>  (8) 
1.1730334758758545

$$$$

     RDKit          3D

 18 20  0  0  0  0  0  0  0  0999 V2000
   27.5614   35.9622  104.1163 N   0  0  0  0  0  0  0  0  0  0  0  0
   28.7701   35.7593  103.7502 C   0  0  0  0  0  0  0  0  0  0  0  0
   26.6976   34.9174  104.2457 C   0  0  0  0  0  0  0  0  0  0  0  0
   27.3195   33.7514  104.3193 N   0  0  0  0  0  0  0  0  0  0  0  0
   25.2165   35.0961  104.5454 C   0  0  0  0  0  0  0  0  0  0  0  0
   24.8665   34.7757  105.7560 N   0  0  0  0  0  0  0  0  0  0  0  0
   25.5849   34.5985  106.7746 C   0  0  0  0  0  0  0  0  0  0  0  0
   24.5740   34.9490  103.3609 O   0  0  0  0  0  0  0  0  0  0  0  0
   23.4572   35.1503  105.8984 C   0  0  0  0  0  0  0  0  0  0  0  0
   28.7606   34.1907  103.8929 C   0  0  0  0  0  0  0  0  0  0  0  0
   22.7400   34.0700  106.6401 C   0  0  0  0  0  0  0  0  0  0  0  0
   29.8943   33.4595  103.7459 C   0  0  0  0  0  0  0  0  0  0  0  0
   29.8865   36.2924  103.4612 N   0  0  0  0  0  0  0  0  0  0  0  0
   23.4108   33.9662  108.0290 C   0  0  0  0  0  0  0  0  0  0  0  0
   31.0449   34.1670  103.3388 C   0  0  0  0  0  0  0  0  0  0  0  0
   31.0078   35.6085  103.2806 C   0  0  0  0  0  0  0  0  0  0  0  0
   24.8874   33.7397  107.8139 C   0  0  0  0  0  0  0  0  0  0  0  0
   32.3970   33.5207  103.1783 O   0  0  0  0  0  0  0  0  0  0  0  0
  1  2  1  0
  1  3  1  0
  3  4  2  0
  3  5  1  0
  5  6  1  0
  6  7  1  0
  5  8  2  0
  6  9  1  0
  2 10  1  0
  4 10  1  0
  9 11  1  0
 10 12  2  0
  2 13  2  0
 11 14  1  0
 12 15  1  0
 13 16  1  0
 15 16  2  0
  7 17  1  0
 14 17  1  0
 15 18  1  0
M  END
>  <generation_time>  (9) 
1.4205687046051025

$$$$

     RDKit          3D

 13 13  0  0  0  0  0  0  0  0999 V2000
   24.7479   36.6589  102.1023 O   0  0  0  0  0  0  0  0  0  0  0  0
   25.4404   35.6352  102.2061 C   0  0  0  0  0  0  0  0  0  0  0  0
   26.7896   35.6391  102.1002 N   0  0  0  0  0  0  0  0  0  0  0  0
   24.8319   34.5457  103.0232 C   0  0  0  0  0  0  0  0  0  0  0  0
   27.6279   34.7458  102.6473 C   0  0  0  0  0  0  0  0  0  0  0  0
   27.1537   33.6931  103.3969 C   0  0  0  0  0  0  0  0  0  0  0  0
   25.7324   33.5910  103.6061 C   0  0  0  0  0  0  0  0  0  0  0  0
   29.0542   34.9905  102.4703 N   0  0  0  0  0  0  0  0  0  0  0  0
   29.9191   34.5091  103.4824 C   0  0  0  0  0  0  0  0  0  0  0  0
   29.8844   34.9250  104.7242 O   0  0  0  0  0  0  0  0  0  0  0  0
   31.1882   34.0281  102.8801 C   0  0  0  0  0  0  0  0  0  0  0  0
   32.1454   33.6768  103.8843 N   0  0  0  0  0  0  0  0  0  0  0  0
   31.5338   33.7761  101.8070 O   0  0  0  0  0  0  0  0  0  0  0  0
  1  2  2  0
  2  3  1  0
  2  4  1  0
  3  5  1  0
  5  6  2  0
  4  7  2  0
  6  7  1  0
  5  8  1  0
  8  9  1  0
  9 10  2  0
  9 11  1  0
 11 12  1  0
 11 13  2  0
M  END
>  <generation_time>  (10) 
0.88415908813476562

$$$$

     RDKit          3D

 17 19  0  0  0  0  0  0  0  0999 V2000
   30.7419   34.3492  104.8077 C   0  0  0  0  0  0  0  0  0  0  0  0
   30.0824   34.7034  103.7515 C   0  0  0  0  0  0  0  0  0  0  0  0
   30.0867   36.0464  103.4478 N   0  0  0  0  0  0  0  0  0  0  0  0
   28.7734   36.4961  103.2077 N   0  0  0  0  0  0  0  0  0  0  0  0
   29.0063   33.8971  103.6412 C   0  0  0  0  0  0  0  0  0  0  0  0
   27.7027   35.8289  103.0510 C   0  0  0  0  0  0  0  0  0  0  0  0
   27.7780   34.3858  103.2514 C   0  0  0  0  0  0  0  0  0  0  0  0
   26.3367   36.1347  102.6334 N   0  0  0  0  0  0  0  0  0  0  0  0
   26.5193   33.6562  103.2767 C   0  0  0  0  0  0  0  0  0  0  0  0
   26.2090   37.2575  101.7680 C   0  0  0  0  0  0  0  0  0  0  0  0
   25.3995   36.7966  100.4789 C   0  0  0  0  0  0  0  0  0  0  0  0
   24.4253   35.9819  100.9322 C   0  0  0  0  0  0  0  0  0  0  0  0
   32.1611   33.9237  104.2518 C   0  0  0  0  0  0  0  0  0  0  0  0
   25.5591   34.0920  103.9047 C   0  0  0  0  0  0  0  0  0  0  0  0
   32.1812   33.6744  102.9412 O   0  0  0  0  0  0  0  0  0  0  0  0
   25.2223   35.4355  103.2924 C   0  0  0  0  0  0  0  0  0  0  0  0
   24.6590   35.0445  102.0407 C   0  0  0  0  0  0  0  0  0  0  0  0
  1  2  1  0
  2  3  1  0
  3  4  2  0
  2  5  2  0
  4  6  1  0
  5  7  1  0
  6  7  2  0
  6  8  1  0
  7  9  1  0
  8 10  1  0
 10 11  1  0
 11 12  1  0
  1 13  1  0
  9 14  1  0
 13 15  1  0
  8 16  1  0
 14 16  1  0
 12 17  1  0
 16 17  1  0
M  END
>  <generation_time>  (11) 
1.2872869968414307

$$$$

     RDKit          3D

 19 19  0  0  0  0  0  0  0  0999 V2000
   24.7479   36.6589  102.1023 O   0  0  0  0  0  0  0  0  0  0  0  0
   25.7510   36.2245  101.3094 C   0  0  0  0  0  0  0  0  0  0  0  0
   25.6912   36.0850  100.0830 N   0  0  0  0  0  0  0  0  0  0  0  0
   26.9309   35.6449  102.0003 C   0  0  0  0  0  0  0  0  0  0  0  0
   26.7533   35.2311  103.4789 N   0  0  0  0  0  0  0  0  0  0  0  0
   27.8866   34.9925  104.1588 C   0  0  0  0  0  0  0  0  0  0  0  0
   25.6258   35.5299  104.2423 C   0  0  0  0  0  0  0  0  0  0  0  0
   29.2068   35.1264  103.7770 C   0  0  0  0  0  0  0  0  0  0  0  0
   24.7117   34.3161  104.2972 C   0  0  0  0  0  0  0  0  0  0  0  0
   27.6428   35.0197  105.4224 O   0  0  0  0  0  0  0  0  0  0  0  0
   29.8904   36.1744  103.4767 C   0  0  0  0  0  0  0  0  0  0  0  0
   24.0277   34.0931  105.5131 C   0  0  0  0  0  0  0  0  0  0  0  0
   29.9190   33.8101  103.7729 C   0  0  0  0  0  0  0  0  0  0  0  0
   31.2408   33.8072  103.4552 C   0  0  0  0  0  0  0  0  0  0  0  0
   31.2019   36.2795  103.2297 N   0  0  0  0  0  0  0  0  0  0  0  0
   24.6258   34.3058  106.5876 N   0  0  0  0  0  0  0  0  0  0  0  0
   31.8973   35.1194  103.2125 C   0  0  0  0  0  0  0  0  0  0  0  0
   22.9157   33.4659  105.4535 O   0  0  0  0  0  0  0  0  0  0  0  0
   24.0612   34.0640  107.9260 C   0  0  0  0  0  0  0  0  0  0  0  0
  1  2  2  0
  2  3  1  0
  2  4  1  0
  4  5  1  0
  5  6  1  0
  5  7  1  0
  6  8  1  0
  7  9  1  0
  6 10  2  0
  8 11  2  0
  9 12  1  0
  8 13  1  0
 13 14  2  0
 11 15  1  0
 12 16  1  0
 14 17  1  0
 15 17  2  0
 12 18  2  0
 16 19  1  0
M  END
>  <generation_time>  (12) 
1.2854499816894531

$$$$

     RDKit          3D

 15 16  0  0  0  0  0  0  0  0999 V2000
   29.9685   36.1144  103.7755 C   0  0  0  0  0  0  0  0  0  0  0  0
   30.9713   35.2840  103.8871 N   0  0  0  0  0  0  0  0  0  0  0  0
   30.0923   37.2127  103.3509 O   0  0  0  0  0  0  0  0  0  0  0  0
   28.6056   35.5267  103.9446 C   0  0  0  0  0  0  0  0  0  0  0  0
   28.5034   34.1995  104.4360 C   0  0  0  0  0  0  0  0  0  0  0  0
   30.9241   33.9416  104.2954 C   0  0  0  0  0  0  0  0  0  0  0  0
   27.4419   36.2388  103.7894 O   0  0  0  0  0  0  0  0  0  0  0  0
   27.1392   33.7936  104.6045 N   0  0  0  0  0  0  0  0  0  0  0  0
   26.4454   35.4573  103.3239 C   0  0  0  0  0  0  0  0  0  0  0  0
   29.6701   33.3458  104.5167 C   0  0  0  0  0  0  0  0  0  0  0  0
   32.1108   33.2355  104.2998 C   0  0  0  0  0  0  0  0  0  0  0  0
   25.2789   36.2852  102.9525 O   0  0  0  0  0  0  0  0  0  0  0  0
   26.1436   34.4290  104.2481 C   0  0  0  0  0  0  0  0  0  0  0  0
   24.9481   36.1407  101.5585 C   0  0  0  0  0  0  0  0  0  0  0  0
   25.0323   33.5483  103.9630 C   0  0  0  0  0  0  0  0  0  0  0  0
  1  2  1  0
  1  3  2  0
  1  4  1  0
  4  5  2  0
  2  6  1  0
  4  7  1  0
  5  8  1  0
  7  9  1  0
  5 10  1  0
  6 10  2  0
  6 11  1  0
  9 12  1  0
  8 13  1  0
  9 13  1  0
 12 14  1  0
 13 15  1  0
M  END
>  <generation_time>  (13) 
1.1447021961212158

$$$$

     RDKit          3D

 17 17  0  0  0  0  0  0  0  0999 V2000
   32.4473   33.7854  102.7619 O   0  0  0  0  0  0  0  0  0  0  0  0
   31.4739   33.9384  103.6736 C   0  0  0  0  0  0  0  0  0  0  0  0
   31.7820   33.9005  104.8704 O   0  0  0  0  0  0  0  0  0  0  0  0
   30.0963   33.9681  103.3412 C   0  0  0  0  0  0  0  0  0  0  0  0
   29.4998   35.2961  103.6630 C   0  0  0  0  0  0  0  0  0  0  0  0
   30.1830   36.3927  103.5841 O   0  0  0  0  0  0  0  0  0  0  0  0
   28.0923   35.3860  103.6675 N   0  0  0  0  0  0  0  0  0  0  0  0
   27.3818   36.2160  103.3746 O   0  0  0  0  0  0  0  0  0  0  0  0
   27.3812   34.0977  104.0133 C   0  0  0  0  0  0  0  0  0  0  0  0
   26.3657   35.8890  102.6140 C   0  0  0  0  0  0  0  0  0  0  0  0
   26.0795   34.5165  103.2989 C   0  0  0  0  0  0  0  0  0  0  0  0
   25.6853   36.2345  101.6338 N   0  0  0  0  0  0  0  0  0  0  0  0
   26.0532   37.3924  100.9538 C   0  0  0  0  0  0  0  0  0  0  0  0
   24.8994   34.6486  104.0894 C   0  0  0  0  0  0  0  0  0  0  0  0
   24.6899   33.5300  105.0941 N   0  0  0  0  0  0  0  0  0  0  0  0
   23.3410   32.9132  104.9918 C   0  0  0  0  0  0  0  0  0  0  0  0
   23.1094   31.9957  105.8937 C   0  0  0  0  0  0  0  0  0  0  0  0
  1  2  2  0
  2  3  1  0
  2  4  1  0
  4  5  1  0
  5  6  2  0
  5  7  1  0
  7  8  1  0
  7  9  1  0
  8 10  1  0
  9 11  1  0
 10 11  1  0
 10 12  2  3
 12 13  1  0
 11 14  1  0
 14 15  1  0
 15 16  1  0
 16 17  1  0
M  END
>  <generation_time>  (14) 
1.0562515258789062

$$$$

     RDKit          3D

 17 17  0  0  0  0  0  0  0  0999 V2000
   29.7048   33.9860  103.9617 C   0  0  0  0  0  0  0  0  0  0  0  0
   31.0651   34.1960  103.9152 C   0  0  0  0  0  0  0  0  0  0  0  0
   31.6416   34.6304  102.7201 O   0  0  0  0  0  0  0  0  0  0  0  0
   31.4660   35.0184  105.0759 C   0  0  0  0  0  0  0  0  0  0  0  0
   28.8892   35.1868  103.4612 N   0  0  0  0  0  0  0  0  0  0  0  0
   31.7921   32.9103  104.0314 C   0  0  0  0  0  0  0  0  0  0  0  0
   27.6046   35.2332  103.5661 C   0  0  0  0  0  0  0  0  0  0  0  0
   26.8999   34.5455  104.5961 N   0  0  0  0  0  0  0  0  0  0  0  0
   25.6537   34.2726  104.6284 C   0  0  0  0  0  0  0  0  0  0  0  0
   26.8800   35.9569  102.8320 O   0  0  0  0  0  0  0  0  0  0  0  0
   29.5336   36.1617  102.7370 C   0  0  0  0  0  0  0  0  0  0  0  0
   25.1318   33.2573  103.7770 C   0  0  0  0  0  0  0  0  0  0  0  0
   25.3334   33.8147  106.0963 C   0  0  0  0  0  0  0  0  0  0  0  0
   24.1850   33.1415  106.2429 O   0  0  0  0  0  0  0  0  0  0  0  0
   25.6311   34.7612  107.1091 O   0  0  0  0  0  0  0  0  0  0  0  0
   24.8193   31.9727  104.1958 C   0  0  0  0  0  0  0  0  0  0  0  0
   23.7042   32.3859  105.2431 C   0  0  0  0  0  0  0  0  0  0  0  0
  1  2  1  0
  2  3  1  0
  2  4  1  0
  1  5  1  0
  2  6  1  0
  5  7  1  0
  7  8  1  0
  8  9  1  0
  7 10  2  0
  5 11  1  0
  9 12  1  0
  9 13  1  0
 13 14  1  0
 13 15  1  0
 12 16  1  0
 14 17  1  0
 16 17  1  0
M  END
>  <generation_time>  (15) 
1.1491031646728516

$$$$

     RDKit          3D

 17 17  0  0  0  0  0  0  0  0999 V2000
   24.4794   34.5119  103.7867 O   0  0  0  0  0  0  0  0  0  0  0  0
   25.6666   34.6690  103.2823 C   0  0  0  0  0  0  0  0  0  0  0  0
   26.8507   34.2447  104.0042 N   0  0  0  0  0  0  0  0  0  0  0  0
   25.7256   35.1194  101.9318 C   0  0  0  0  0  0  0  0  0  0  0  0
   24.5279   35.6904  101.4346 C   0  0  0  0  0  0  0  0  0  0  0  0
   26.8641   35.9574  101.6348 C   0  0  0  0  0  0  0  0  0  0  0  0
   28.0426   34.3735  103.5121 C   0  0  0  0  0  0  0  0  0  0  0  0
   29.2222   34.1698  104.2069 C   0  0  0  0  0  0  0  0  0  0  0  0
   26.8672   36.7536  100.8459 O   0  0  0  0  0  0  0  0  0  0  0  0
   30.4788   34.5149  103.7338 C   0  0  0  0  0  0  0  0  0  0  0  0
   26.6206   33.4992  105.1860 C   0  0  0  0  0  0  0  0  0  0  0  0
   31.5325   33.7711  104.1143 C   0  0  0  0  0  0  0  0  0  0  0  0
   30.5362   34.5153  102.2343 O   0  0  0  0  0  0  0  0  0  0  0  0
   27.9947   35.4983  102.3887 N   0  0  0  0  0  0  0  0  0  0  0  0
   32.2112   34.2298  105.2784 O   0  0  0  0  0  0  0  0  0  0  0  0
   26.0173   34.3895  106.3256 C   0  0  0  0  0  0  0  0  0  0  0  0
   26.0604   33.8936  107.5874 N   0  0  0  0  0  0  0  0  0  0  0  0
  1  2  2  0
  2  3  1  0
  2  4  1  0
  4  5  1  0
  4  6  1  0
  3  7  1  0
  7  8  1  0
  6  9  2  0
  8 10  1  0
  3 11  1  0
 10 12  1  0
 10 13  1  0
  6 14  1  0
  7 14  2  0
 12 15  1  0
 11 16  1  0
 16 17  1  0
M  END
>  <generation_time>  (16) 
1.3343226909637451

$$$$

     RDKit          3D

 23 24  0  0  0  0  0  0  0  0999 V2000
   24.7838   36.5800  100.9197 C   0  0  0  0  0  0  0  0  0  0  0  0
   26.0767   36.6213  100.7524 C   0  0  0  0  0  0  0  0  0  0  0  0
   24.3801   35.9263  102.1138 C   0  0  0  0  0  0  0  0  0  0  0  0
   27.0579   36.0789  101.4571 C   0  0  0  0  0  0  0  0  0  0  0  0
   25.2588   35.2360  102.9245 C   0  0  0  0  0  0  0  0  0  0  0  0
   24.8020   34.4586  104.0418 N   0  0  0  0  0  0  0  0  0  0  0  0
   26.6504   35.3776  102.7511 C   0  0  0  0  0  0  0  0  0  0  0  0
   27.6425   34.8770  103.6129 C   0  0  0  0  0  0  0  0  0  0  0  0
   27.3925   34.2994  104.5355 O   0  0  0  0  0  0  0  0  0  0  0  0
   28.9764   35.0390  103.2635 N   0  0  0  0  0  0  0  0  0  0  0  0
   24.4215   35.0447  105.1912 C   0  0  0  0  0  0  0  0  0  0  0  0
   23.9496   34.1586  106.2312 C   0  0  0  0  0  0  0  0  0  0  0  0
   24.3587   36.2465  105.2628 O   0  0  0  0  0  0  0  0  0  0  0  0
   25.0761   33.5122  106.8957 C   0  0  0  0  0  0  0  0  0  0  0  0
   22.7716   33.9509  106.6560 C   0  0  0  0  0  0  0  0  0  0  0  0
   30.0193   34.7509  103.9139 C   0  0  0  0  0  0  0  0  0  0  0  0
   26.4271   33.5457  106.6374 N   0  0  0  0  0  0  0  0  0  0  0  0
   24.7483   33.0652  108.0870 N   0  0  0  0  0  0  0  0  0  0  0  0
   22.4622   33.3444  107.8280 C   0  0  0  0  0  0  0  0  0  0  0  0
   31.0682   34.1587  103.2113 C   0  0  0  0  0  0  0  0  0  0  0  0
   31.2040   34.1346  101.9549 O   0  0  0  0  0  0  0  0  0  0  0  0
   32.0504   33.5789  104.0076 O   0  0  0  0  0  0  0  0  0  0  0  0
   23.5055   32.9208  108.5108 C   0  0  0  0  0  0  0  0  0  0  0  0
  1  2  1  0
  1  3  2  0
  2  4  2  0
  3  5  1  0
  5  6  1  0
  4  7  1  0
  5  7  2  0
  7  8  1  0
  8  9  2  0
  8 10  1  0
  6 11  1  0
 11 12  1  0
 11 13  2  0
 12 14  1  0
 12 15  2  0
 10 16  1  0
 14 17  1  0
 14 18  2  0
 15 19  1  0
 16 20  1  0
 20 21  2  0
 20 22  1  0
 18 23  1  0
 19 23  2  0
M  END
>  <generation_time>  (17) 
1.5595848560333252

$$$$

     RDKit          3D

 18 19  0  0  0  0  0  0  0  0999 V2000
   32.4715   34.4021  104.0838 O   0  0  0  0  0  0  0  0  0  0  0  0
   31.7060   34.0785  103.0763 C   0  0  0  0  0  0  0  0  0  0  0  0
   31.9503   33.6447  102.0364 O   0  0  0  0  0  0  0  0  0  0  0  0
   30.2285   33.8023  103.5124 C   0  0  0  0  0  0  0  0  0  0  0  0
   29.6664   34.7910  104.4256 C   0  0  0  0  0  0  0  0  0  0  0  0
   28.5096   35.5886  103.7573 C   0  0  0  0  0  0  0  0  0  0  0  0
   27.1758   35.0138  103.7692 N   0  0  0  0  0  0  0  0  0  0  0  0
   26.2865   35.0949  102.8979 C   0  0  0  0  0  0  0  0  0  0  0  0
   26.4552   35.9229  101.7961 N   0  0  0  0  0  0  0  0  0  0  0  0
   24.9679   34.6308  103.0563 C   0  0  0  0  0  0  0  0  0  0  0  0
   28.6745   36.6814  103.2459 O   0  0  0  0  0  0  0  0  0  0  0  0
   24.6934   33.6018  104.1152 C   0  0  0  0  0  0  0  0  0  0  0  0
   24.8805   32.4303  103.9231 N   0  0  0  0  0  0  0  0  0  0  0  0
   24.3102   31.6139  104.7368 C   0  0  0  0  0  0  0  0  0  0  0  0
   25.0670   36.0232  101.2713 C   0  0  0  0  0  0  0  0  0  0  0  0
   24.3348   35.2024  102.0329 N   0  0  0  0  0  0  0  0  0  0  0  0
   23.5911   32.4145  105.6933 C   0  0  0  0  0  0  0  0  0  0  0  0
   23.9878   33.9910  105.3594 C   0  0  0  0  0  0  0  0  0  0  0  0
  1  2  1  0
  2  3  2  0
  2  4  1  0
  4  5  1  0
  5  6  1  0
  6  7  1  0
  7  8  1  0
  8  9  2  0
  8 10  1  0
  6 11  2  0
 10 12  1  0
 12 13  2  0
 13 14  1  0
  9 15  1  0
 10 16  1  0
 15 16  2  0
 14 17  2  0
 12 18  1  0
 17 18  1  0
M  END
>  <generation_time>  (18) 
1.2831509113311768

$$$$

     RDKit          3D

 21 22  0  0  0  0  0  0  0  0999 V2000
   29.5876   35.2744  104.3972 C   0  0  0  0  0  0  0  0  0  0  0  0
   30.8621   35.3348  104.2971 N   0  0  0  0  0  0  0  0  0  0  0  0
   31.5807   34.1982  103.9415 C   0  0  0  0  0  0  0  0  0  0  0  0
   32.4124   33.6899  104.6358 O   0  0  0  0  0  0  0  0  0  0  0  0
   31.3170   33.5266  102.6950 C   0  0  0  0  0  0  0  0  0  0  0  0
   28.7727   34.1660  104.8860 C   0  0  0  0  0  0  0  0  0  0  0  0
   27.3586   34.2210  104.8252 N   0  0  0  0  0  0  0  0  0  0  0  0
   28.7606   36.3129  103.8124 N   0  0  0  0  0  0  0  0  0  0  0  0
   27.4573   36.3089  103.6865 N   0  0  0  0  0  0  0  0  0  0  0  0
   26.9159   35.1663  104.1725 C   0  0  0  0  0  0  0  0  0  0  0  0
   25.3623   35.0296  104.0496 C   0  0  0  0  0  0  0  0  0  0  0  0
   24.8927   34.0327  103.1535 C   0  0  0  0  0  0  0  0  0  0  0  0
   24.6688   34.9757  105.3462 C   0  0  0  0  0  0  0  0  0  0  0  0
   24.2517   33.6676  105.7133 N   0  0  0  0  0  0  0  0  0  0  0  0
   24.3626   33.2764  107.0343 C   0  0  0  0  0  0  0  0  0  0  0  0
   25.4539   33.9586  107.8429 C   0  0  0  0  0  0  0  0  0  0  0  0
   23.0909   33.4363  104.9465 C   0  0  0  0  0  0  0  0  0  0  0  0
   22.3696   32.3623  105.4898 C   0  0  0  0  0  0  0  0  0  0  0  0
   24.0404   32.9326  103.8578 C   0  0  0  0  0  0  0  0  0  0  0  0
   25.5196   35.1586  108.0120 O   0  0  0  0  0  0  0  0  0  0  0  0
   26.3496   33.1037  108.2978 O   0  0  0  0  0  0  0  0  0  0  0  0
  1  2  1  0
  2  3  1  0
  3  4  2  0
  3  5  1  0
  1  6  2  0
  6  7  1  0
  1  8  1  0
  8  9  1  0
  7 10  1  0
  9 10  2  0
 10 11  1  0
 11 12  1  0
 11 13  1  0
 13 14  1  0
 14 15  1  0
 15 16  1  0
 14 17  1  0
 17 18  1  0
 12 19  1  0
 17 19  1  0
 16 20  2  0
 16 21  1  0
M  END
>  <generation_time>  (19) 
1.2685704231262207

$$$$

     RDKit          3D

 14 14  0  0  0  0  0  0  0  0999 V2000
   31.3181   33.2338  102.9631 C   0  0  0  0  0  0  0  0  0  0  0  0
   30.8241   34.1962  103.6974 C   0  0  0  0  0  0  0  0  0  0  0  0
   32.7077   33.2496  102.6962 O   0  0  0  0  0  0  0  0  0  0  0  0
   31.6984   35.0425  104.3188 O   0  0  0  0  0  0  0  0  0  0  0  0
   29.4719   34.6418  103.7677 C   0  0  0  0  0  0  0  0  0  0  0  0
   29.0452   35.9248  103.4889 C   0  0  0  0  0  0  0  0  0  0  0  0
   29.8917   36.8996  103.3589 O   0  0  0  0  0  0  0  0  0  0  0  0
   27.6736   36.1130  103.4107 N   0  0  0  0  0  0  0  0  0  0  0  0
   28.3759   33.6497  104.0740 C   0  0  0  0  0  0  0  0  0  0  0  0
   26.7293   35.2240  103.6185 C   0  0  0  0  0  0  0  0  0  0  0  0
   27.0853   33.9418  103.9125 N   0  0  0  0  0  0  0  0  0  0  0  0
   25.4305   35.4049  103.4159 N   0  0  0  0  0  0  0  0  0  0  0  0
   24.9023   35.4114  102.0659 C   0  0  0  0  0  0  0  0  0  0  0  0
   25.4226   36.4498  101.0825 C   0  0  0  0  0  0  0  0  0  0  0  0
  1  2  1  0
  1  3  1  0
  2  4  1  0
  2  5  1  0
  5  6  2  0
  6  7  1  0
  6  8  1  0
  5  9  1  0
  8 10  2  0
  9 11  2  0
 10 11  1  0
 10 12  1  0
 12 13  1  0
 13 14  1  0
M  END
>  <generation_time>  (20) 
0.97643423080444336

$$$$

     RDKit          3D

 22 24  0  0  0  0  0  0  0  0999 V2000
   27.5127   35.9425  103.0024 C   0  0  0  0  0  0  0  0  0  0  0  0
   26.5686   34.9705  103.4038 C   0  0  0  0  0  0  0  0  0  0  0  0
   25.2288   35.1280  103.0592 N   0  0  0  0  0  0  0  0  0  0  0  0
   26.5844   34.3920  104.6984 N   0  0  0  0  0  0  0  0  0  0  0  0
   27.7410   34.3794  105.4261 C   0  0  0  0  0  0  0  0  0  0  0  0
   24.1546   34.5942  103.7061 C   0  0  0  0  0  0  0  0  0  0  0  0
   27.3516   36.3952  101.8927 O   0  0  0  0  0  0  0  0  0  0  0  0
   28.8559   35.1653  104.8964 C   0  0  0  0  0  0  0  0  0  0  0  0
   25.3500   34.5773  105.4482 C   0  0  0  0  0  0  0  0  0  0  0  0
   25.5767   34.3922  106.8570 C   0  0  0  0  0  0  0  0  0  0  0  0
   28.5740   36.0934  103.7171 N   0  0  0  0  0  0  0  0  0  0  0  0
   24.2134   34.4974  104.9579 C   0  0  0  0  0  0  0  0  0  0  0  0
   24.5370   34.5124  107.6277 O   0  0  0  0  0  0  0  0  0  0  0  0
   26.7397   34.4804  107.3644 O   0  0  0  0  0  0  0  0  0  0  0  0
   25.2810   35.1003  101.4410 C   0  0  0  0  0  0  0  0  0  0  0  0
   24.3192   36.3360  100.9760 C   0  0  0  0  0  0  0  0  0  0  0  0
   30.1376   34.5682  104.2180 C   0  0  0  0  0  0  0  0  0  0  0  0
   31.2770   34.4551  104.9207 C   0  0  0  0  0  0  0  0  0  0  0  0
   30.0404   33.9701  102.9349 C   0  0  0  0  0  0  0  0  0  0  0  0
   32.2921   33.9028  104.2808 C   0  0  0  0  0  0  0  0  0  0  0  0
   31.0462   33.4006  102.3538 C   0  0  0  0  0  0  0  0  0  0  0  0
   32.2481   33.3887  103.0386 N   0  0  0  0  0  0  0  0  0  0  0  0
  1  2  1  0
  2  3  1  0
  2  4  1  0
  4  5  1  0
  3  6  1  0
  1  7  2  0
  5  8  1  0
  4  9  1  0
  9 10  1  0
  1 11  1  0
  8 11  1  0
  6 12  1  0
  9 12  2  0
 10 13  2  0
 10 14  1  0
  3 15  1  0
 15 16  1  0
  8 17  1  0
 17 18  1  0
 17 19  2  0
 18 20  2  0
 19 21  1  0
 20 22  1  0
 21 22  2  0
M  END
>  <generation_time>  (21) 
1.6079835891723633

$$$$

     RDKit          3D

 16 16  0  0  0  0  0  0  0  0999 V2000
   25.3641   34.7901  107.8611 O   0  0  0  0  0  0  0  0  0  0  0  0
   25.8597   33.7958  107.3503 C   0  0  0  0  0  0  0  0  0  0  0  0
   26.4069   34.0670  106.1157 N   0  0  0  0  0  0  0  0  0  0  0  0
   25.7672   34.7623  105.0993 C   0  0  0  0  0  0  0  0  0  0  0  0
   24.6697   34.0711  104.5878 C   0  0  0  0  0  0  0  0  0  0  0  0
   26.8447   34.9015  103.9801 C   0  0  0  0  0  0  0  0  0  0  0  0
   26.5996   34.6222  102.9269 O   0  0  0  0  0  0  0  0  0  0  0  0
   27.9517   35.5474  104.1686 N   0  0  0  0  0  0  0  0  0  0  0  0
   28.9848   35.8268  103.3339 C   0  0  0  0  0  0  0  0  0  0  0  0
   23.4030   34.6365  104.7577 O   0  0  0  0  0  0  0  0  0  0  0  0
   30.3191   35.2456  103.8979 C   0  0  0  0  0  0  0  0  0  0  0  0
   29.0941   37.2004  103.2106 O   0  0  0  0  0  0  0  0  0  0  0  0
   30.5750   34.9711  105.1061 C   0  0  0  0  0  0  0  0  0  0  0  0
   31.7024   34.2129  105.3685 C   0  0  0  0  0  0  0  0  0  0  0  0
   31.1463   34.5489  102.9151 C   0  0  0  0  0  0  0  0  0  0  0  0
   32.3852   33.8349  104.0045 S   0  0  0  0  0  0  0  0  0  0  0  0
  1  2  2  0
  2  3  1  0
  3  4  1  0
  4  5  1  0
  4  6  1  0
  6  7  2  0
  6  8  1  0
  8  9  1  0
  5 10  1  0
  9 11  1  0
  9 12  1  0
 11 13  1  0
 13 14  2  0
 11 15  2  0
 14 16  1  0
 15 16  1  0
M  END
>  <generation_time>  (22) 
1.0797936916351318

$$$$

     RDKit          3D

 21 24  0  0  0  0  0  0  0  0999 V2000
   25.0999   34.4100  106.3998 C   0  0  0  0  0  0  0  0  0  0  0  0
   25.3759   34.5187  105.1490 N   0  0  0  0  0  0  0  0  0  0  0  0
   25.9733   34.2146  107.2946 O   0  0  0  0  0  0  0  0  0  0  0  0
   24.5542   34.3929  104.0482 C   0  0  0  0  0  0  0  0  0  0  0  0
   23.6600   34.3362  106.7146 C   0  0  0  0  0  0  0  0  0  0  0  0
   25.1158   34.9687  102.9607 C   0  0  0  0  0  0  0  0  0  0  0  0
   24.3267   35.3367  101.8213 C   0  0  0  0  0  0  0  0  0  0  0  0
   24.9419   35.9683  100.7066 C   0  0  0  0  0  0  0  0  0  0  0  0
   26.4559   35.4056  102.8865 C   0  0  0  0  0  0  0  0  0  0  0  0
   27.0693   36.0413  101.8474 C   0  0  0  0  0  0  0  0  0  0  0  0
   28.3380   36.3888  101.9979 O   0  0  0  0  0  0  0  0  0  0  0  0
   28.9966   35.7665  103.1924 C   0  0  0  0  0  0  0  0  0  0  0  0
   26.2738   36.3602  100.7992 C   0  0  0  0  0  0  0  0  0  0  0  0
   30.2785   35.8520  103.2963 C   0  0  0  0  0  0  0  0  0  0  0  0
   30.9509   34.9708  104.2154 C   0  0  0  0  0  0  0  0  0  0  0  0
   27.6779   35.1282  103.7900 C   0  0  0  0  0  0  0  0  0  0  0  0
   32.3095   34.9173  104.3813 O   0  0  0  0  0  0  0  0  0  0  0  0
   27.7061   34.3843  104.9863 C   0  0  0  0  0  0  0  0  0  0  0  0
   30.3588   33.6506  104.6546 C   0  0  0  0  0  0  0  0  0  0  0  0
   26.6246   33.7661  105.1678 N   0  0  0  0  0  0  0  0  0  0  0  0
   28.9195   33.6630  105.1621 C   0  0  0  0  0  0  0  0  0  0  0  0
  1  2  1  0
  1  3  2  0
  2  4  1  0
  1  5  1  0
  4  6  1  0
  6  7  2  0
  7  8  1  0
  6  9  1  0
  9 10  2  0
 10 11  1  0
 11 12  1  0
  8 13  2  0
 10 13  1  0
 12 14  1  0
 14 15  2  0
  9 16  1  0
 12 16  2  0
 15 17  1  0
 16 18  1  0
 15 19  1  0
  2 20  1  0
 18 20  1  0
 18 21  1  0
 19 21  2  0
M  END
>  <generation_time>  (23) 
1.5054893493652344

$$$$

     RDKit          3D

 20 20  0  0  0  0  0  0  0  0999 V2000
   25.4037   36.2122  102.6673 O   0  0  0  0  0  0  0  0  0  0  0  0
   26.3851   35.3350  102.7943 C   0  0  0  0  0  0  0  0  0  0  0  0
   27.6384   35.6442  102.5933 N   0  0  0  0  0  0  0  0  0  0  0  0
   28.5973   35.2487  103.4299 C   0  0  0  0  0  0  0  0  0  0  0  0
   26.0071   34.1265  103.3444 C   0  0  0  0  0  0  0  0  0  0  0  0
   24.5851   33.7214  103.5178 C   0  0  0  0  0  0  0  0  0  0  0  0
   29.9252   35.6992  103.1995 C   0  0  0  0  0  0  0  0  0  0  0  0
   28.4752   33.9252  103.8929 C   0  0  0  0  0  0  0  0  0  0  0  0
   26.9478   33.4158  104.1791 C   0  0  0  0  0  0  0  0  0  0  0  0
   30.9838   35.0146  103.7578 C   0  0  0  0  0  0  0  0  0  0  0  0
   30.0766   36.8626  102.8715 O   0  0  0  0  0  0  0  0  0  0  0  0
   24.4289   32.4233  104.2887 C   0  0  0  0  0  0  0  0  0  0  0  0
   23.6982   32.6126  105.4821 C   0  0  0  0  0  0  0  0  0  0  0  0
   24.1772   33.3919  106.4749 N   0  0  0  0  0  0  0  0  0  0  0  0
   25.5465   33.4787  106.8599 C   0  0  0  0  0  0  0  0  0  0  0  0
   22.6484   31.8308  105.8503 O   0  0  0  0  0  0  0  0  0  0  0  0
   31.7696   34.2770  102.7569 O   0  0  0  0  0  0  0  0  0  0  0  0
   23.3653   34.2721  107.3454 C   0  0  0  0  0  0  0  0  0  0  0  0
   31.4132   34.7663  104.9522 O   0  0  0  0  0  0  0  0  0  0  0  0
   25.7287   34.2167  107.9314 O   0  0  0  0  0  0  0  0  0  0  0  0
  1  2  2  0
  2  3  1  0
  3  4  1  0
  2  5  1  0
  5  6  1  0
  4  7  1  0
  4  8  2  0
  5  9  2  0
  8  9  1  0
  7 10  1  0
  7 11  2  0
  6 12  1  0
 12 13  1  0
 13 14  1  0
 14 15  1  0
 13 16  2  0
 10 17  1  0
 14 18  1  0
 10 19  2  0
 15 20  2  0
M  END
>  <generation_time>  (24) 
1.4391608238220215

$$$$

     RDKit          3D

 18 19  0  0  0  0  0  0  0  0999 V2000
   31.6443   34.6897  102.7876 N   0  0  0  0  0  0  0  0  0  0  0  0
   31.8786   33.5433  103.3274 C   0  0  0  0  0  0  0  0  0  0  0  0
   32.7242   33.4462  104.1538 O   0  0  0  0  0  0  0  0  0  0  0  0
   30.6832   32.6857  103.3483 C   0  0  0  0  0  0  0  0  0  0  0  0
   29.6474   33.4901  102.7446 C   0  0  0  0  0  0  0  0  0  0  0  0
   30.1818   34.8250  102.8170 C   0  0  0  0  0  0  0  0  0  0  0  0
   29.5410   36.0189  102.9351 C   0  0  0  0  0  0  0  0  0  0  0  0
   28.2314   33.3769  103.0712 C   0  0  0  0  0  0  0  0  0  0  0  0
   27.4964   34.5867  103.1150 C   0  0  0  0  0  0  0  0  0  0  0  0
   28.2383   36.0134  103.1797 C   0  0  0  0  0  0  0  0  0  0  0  0
   26.0080   34.6090  103.3418 C   0  0  0  0  0  0  0  0  0  0  0  0
   25.3741   35.1066  102.4938 O   0  0  0  0  0  0  0  0  0  0  0  0
   25.4837   33.8784  104.2966 N   0  0  0  0  0  0  0  0  0  0  0  0
   23.9987   33.7928  104.4817 C   0  0  0  0  0  0  0  0  0  0  0  0
   23.6441   32.8218  105.5794 C   0  0  0  0  0  0  0  0  0  0  0  0
   23.7591   33.2707  106.7791 O   0  0  0  0  0  0  0  0  0  0  0  0
   22.6110   31.9893  105.3249 O   0  0  0  0  0  0  0  0  0  0  0  0
   24.8711   34.0879  107.2124 C   0  0  0  0  0  0  0  0  0  0  0  0
  1  2  1  0
  2  3  2  0
  2  4  1  0
  4  5  1  0
  1  6  1  0
  5  6  1  0
  6  7  2  0
  5  8  2  0
  8  9  1  0
  7 10  1  0
  9 10  2  0
  9 11  1  0
 11 12  2  0
 11 13  1  0
 13 14  1  0
 14 15  1  0
 15 16  1  0
 15 17  2  0
 16 18  1  0
M  END
>  <generation_time>  (25) 
1.1234803199768066

$$$$

     RDKit          3D

 20 21  0  0  0  0  0  0  0  0999 V2000
   32.3195   33.8370  102.7330 O   0  0  0  0  0  0  0  0  0  0  0  0
   31.7895   33.8762  103.9333 C   0  0  0  0  0  0  0  0  0  0  0  0
   30.4650   34.5443  103.8845 C   0  0  0  0  0  0  0  0  0  0  0  0
   30.3349   35.9233  103.8763 C   0  0  0  0  0  0  0  0  0  0  0  0
   29.0340   36.4426  103.6646 N   0  0  0  0  0  0  0  0  0  0  0  0
   29.3417   33.6991  103.8764 C   0  0  0  0  0  0  0  0  0  0  0  0
   27.9775   35.6558  103.6347 C   0  0  0  0  0  0  0  0  0  0  0  0
   26.6671   36.1542  103.5075 O   0  0  0  0  0  0  0  0  0  0  0  0
   28.0441   34.2132  103.7525 C   0  0  0  0  0  0  0  0  0  0  0  0
   25.8681   35.7974  102.4562 C   0  0  0  0  0  0  0  0  0  0  0  0
   24.6366   35.0242  102.7364 C   0  0  0  0  0  0  0  0  0  0  0  0
   24.7854   33.7996  103.3887 C   0  0  0  0  0  0  0  0  0  0  0  0
   24.3765   33.6810  104.6519 N   0  0  0  0  0  0  0  0  0  0  0  0
   24.9220   34.4257  105.6679 C   0  0  0  0  0  0  0  0  0  0  0  0
   23.3297   32.7599  105.0157 C   0  0  0  0  0  0  0  0  0  0  0  0
   24.7312   34.1031  106.9973 C   0  0  0  0  0  0  0  0  0  0  0  0
   22.7569   32.1412  104.0581 O   0  0  0  0  0  0  0  0  0  0  0  0
   22.9174   32.8118  106.3177 C   0  0  0  0  0  0  0  0  0  0  0  0
   25.4753   34.7728  108.0007 O   0  0  0  0  0  0  0  0  0  0  0  0
   23.6481   33.3835  107.3672 C   0  0  0  0  0  0  0  0  0  0  0  0
  1  2  1  0
  2  3  1  0
  3  4  2  0
  4  5  1  0
  3  6  1  0
  5  7  2  0
  7  8  1  0
  6  9  2  0
  7  9  1  0
  8 10  1  0
 10 11  1  0
 11 12  1  0
 12 13  1  0
 13 14  1  0
 13 15  1  0
 14 16  1  0
 15 17  2  0
 15 18  1  0
 16 19  1  0
 16 20  2  0
 18 20  1  0
M  END
>  <generation_time>  (26) 
1.2658343315124512

$$$$

     RDKit          3D

 16 15  0  0  0  0  0  0  0  0999 V2000
   32.4610   33.6326  102.1182 O   0  0  0  0  0  0  0  0  0  0  0  0
   31.7341   33.8276  103.3138 C   0  0  0  0  0  0  0  0  0  0  0  0
   32.2383   33.6761  104.4209 O   0  0  0  0  0  0  0  0  0  0  0  0
   30.2984   33.7989  103.2156 C   0  0  0  0  0  0  0  0  0  0  0  0
   29.7507   35.1341  103.6371 C   0  0  0  0  0  0  0  0  0  0  0  0
   28.3033   35.3182  103.6263 C   0  0  0  0  0  0  0  0  0  0  0  0
   30.3583   36.2422  103.8735 O   0  0  0  0  0  0  0  0  0  0  0  0
   27.6825   36.1312  102.7543 O   0  0  0  0  0  0  0  0  0  0  0  0
   27.4809   34.3957  104.2851 N   0  0  0  0  0  0  0  0  0  0  0  0
   26.1098   34.4018  104.3205 C   0  0  0  0  0  0  0  0  0  0  0  0
   25.4508   33.3693  103.5360 C   0  0  0  0  0  0  0  0  0  0  0  0
   25.4837   35.7243  103.9648 O   0  0  0  0  0  0  0  0  0  0  0  0
   25.7115   34.1528  105.7804 C   0  0  0  0  0  0  0  0  0  0  0  0
   24.5091   33.8305  106.1272 O   0  0  0  0  0  0  0  0  0  0  0  0
   26.4650   34.5836  106.7325 O   0  0  0  0  0  0  0  0  0  0  0  0
   26.3660   33.9876  108.0509 O   0  0  0  0  0  0  0  0  0  0  0  0
  1  2  2  0
  2  3  1  0
  2  4  1  0
  4  5  1  0
  5  6  1  0
  5  7  2  0
  6  8  2  0
  6  9  1  0
  9 10  1  0
 10 11  1  0
 10 12  1  0
 10 13  1  0
 13 14  2  0
 13 15  1  0
 15 16  1  0
M  END
>  <generation_time>  (27) 
0.99546194076538086

$$$$

     RDKit          3D

 16 15  0  0  0  0  0  0  0  0999 V2000
   24.7479   36.6589  102.1023 O   0  0  0  0  0  0  0  0  0  0  0  0
   25.7510   36.2245  101.3094 C   0  0  0  0  0  0  0  0  0  0  0  0
   26.8550   35.6341  101.9690 C   0  0  0  0  0  0  0  0  0  0  0  0
   26.5563   35.1253  103.4456 N   0  0  0  0  0  0  0  0  0  0  0  0
   26.0483   33.9984  103.6475 C   0  0  0  0  0  0  0  0  0  0  0  0
   27.7836   35.4314  104.3839 C   0  0  0  0  0  0  0  0  0  0  0  0
   25.6110   36.1696  100.0820 N   0  0  0  0  0  0  0  0  0  0  0  0
   28.9167   34.6217  104.3027 C   0  0  0  0  0  0  0  0  0  0  0  0
   24.6261   34.0653  104.0896 C   0  0  0  0  0  0  0  0  0  0  0  0
   30.1440   35.0924  103.9332 C   0  0  0  0  0  0  0  0  0  0  0  0
   24.3940   34.4233  105.4493 C   0  0  0  0  0  0  0  0  0  0  0  0
   25.4207   34.0657  106.2995 N   0  0  0  0  0  0  0  0  0  0  0  0
   31.3418   34.2701  103.9082 C   0  0  0  0  0  0  0  0  0  0  0  0
   32.0643   34.3064  105.0089 O   0  0  0  0  0  0  0  0  0  0  0  0
   31.3855   33.0431  103.3451 O   0  0  0  0  0  0  0  0  0  0  0  0
   25.4883   34.5232  107.6055 C   0  0  0  0  0  0  0  0  0  0  0  0
  1  2  2  0
  2  3  1  0
  3  4  1  0
  4  5  1  0
  4  6  1  0
  2  7  1  0
  6  8  1  0
  5  9  1  0
  8 10  2  3
  9 11  1  0
 11 12  1  0
 10 13  1  0
 13 14  1  0
 13 15  2  0
 12 16  1  0
M  END
>  <generation_time>  (28) 
1.5007941722869873

$$$$

     RDKit          3D

 17 17  0  0  0  0  0  0  0  0999 V2000
   32.3344   33.7042  103.0285 O   0  0  0  0  0  0  0  0  0  0  0  0
   31.7177   33.9580  104.1967 C   0  0  0  0  0  0  0  0  0  0  0  0
   32.1505   33.6946  105.2254 O   0  0  0  0  0  0  0  0  0  0  0  0
   30.2198   34.2055  104.0606 C   0  0  0  0  0  0  0  0  0  0  0  0
   29.8535   35.5523  103.9582 C   0  0  0  0  0  0  0  0  0  0  0  0
   29.2524   33.2901  103.8715 C   0  0  0  0  0  0  0  0  0  0  0  0
   28.4606   35.6183  103.7023 C   0  0  0  0  0  0  0  0  0  0  0  0
   30.4145   36.6582  103.7568 O   0  0  0  0  0  0  0  0  0  0  0  0
   27.9864   34.1590  103.7193 N   0  0  0  0  0  0  0  0  0  0  0  0
   26.7236   33.6226  103.6577 C   0  0  0  0  0  0  0  0  0  0  0  0
   27.6385   36.2974  102.8374 O   0  0  0  0  0  0  0  0  0  0  0  0
   25.6075   34.6224  103.8357 C   0  0  0  0  0  0  0  0  0  0  0  0
   25.1515   34.7094  105.2099 C   0  0  0  0  0  0  0  0  0  0  0  0
   24.1134   35.1161  105.5422 O   0  0  0  0  0  0  0  0  0  0  0  0
   25.9567   34.0184  106.0632 O   0  0  0  0  0  0  0  0  0  0  0  0
   25.9788   34.5436  107.4834 C   0  0  0  0  0  0  0  0  0  0  0  0
   24.4066   34.3148  102.9573 C   0  0  0  0  0  0  0  0  0  0  0  0
  1  2  2  0
  2  3  1  0
  2  4  1  0
  4  5  1  0
  4  6  2  0
  5  7  1  0
  5  8  2  0
  6  9  1  0
  7  9  1  0
  9 10  1  0
  7 11  2  0
 10 12  1  0
 12 13  1  0
 13 14  2  0
 13 15  1  0
 15 16  1  0
 12 17  1  0
M  END
>  <generation_time>  (29) 
1.1110939979553223

$$$$

     RDKit          3D

 14 15  0  0  0  0  0  0  0  0999 V2000
   26.0795   33.6604  107.7971 O   0  0  0  0  0  0  0  0  0  0  0  0
   25.0191   34.2079  107.3383 C   0  0  0  0  0  0  0  0  0  0  0  0
   24.0332   34.2637  108.1305 O   0  0  0  0  0  0  0  0  0  0  0  0
   24.7947   34.3679  105.8976 C   0  0  0  0  0  0  0  0  0  0  0  0
   25.2143   35.4877  105.3720 N   0  0  0  0  0  0  0  0  0  0  0  0
   24.4313   33.2456  105.1184 C   0  0  0  0  0  0  0  0  0  0  0  0
   24.4612   33.4795  103.6849 C   0  0  0  0  0  0  0  0  0  0  0  0
   25.3646   35.6487  104.0163 C   0  0  0  0  0  0  0  0  0  0  0  0
   25.8102   36.8615  103.5114 O   0  0  0  0  0  0  0  0  0  0  0  0
   24.8967   34.6182  103.1500 C   0  0  0  0  0  0  0  0  0  0  0  0
   26.2243   36.6552  102.2647 C   0  0  0  0  0  0  0  0  0  0  0  0
   25.1406   35.0061  101.8212 C   0  0  0  0  0  0  0  0  0  0  0  0
   25.5133   36.0378  101.3902 C   0  0  0  0  0  0  0  0  0  0  0  0
   26.1039   36.1358  100.2268 O   0  0  0  0  0  0  0  0  0  0  0  0
  1  2  2  0
  2  3  1  0
  2  4  1  0
  4  5  1  0
  4  6  2  0
  6  7  1  0
  5  8  2  0
  8  9  1  0
  7 10  2  0
  8 10  1  0
  9 11  1  0
 10 12  1  0
 11 13  1  0
 12 13  1  0
 13 14  1  0
M  END
>  <generation_time>  (30) 
0.97197103500366211

$$$$

     RDKit          3D

 17 18  0  0  0  0  0  0  0  0999 V2000
   31.7536   34.3710  105.0164 C   0  0  0  0  0  0  0  0  0  0  0  0
   31.3426   34.2905  103.7347 C   0  0  0  0  0  0  0  0  0  0  0  0
   31.2949   33.0458  103.3073 O   0  0  0  0  0  0  0  0  0  0  0  0
   30.1717   35.1675  103.4191 C   0  0  0  0  0  0  0  0  0  0  0  0
   32.4543   34.8152  102.8672 O   0  0  0  0  0  0  0  0  0  0  0  0
   30.2284   36.4423  103.2362 O   0  0  0  0  0  0  0  0  0  0  0  0
   28.8678   34.6165  103.5924 N   0  0  0  0  0  0  0  0  0  0  0  0
   28.4986   33.4016  104.0328 C   0  0  0  0  0  0  0  0  0  0  0  0
   27.0823   33.3776  103.6574 C   0  0  0  0  0  0  0  0  0  0  0  0
   26.0783   32.8212  104.2775 C   0  0  0  0  0  0  0  0  0  0  0  0
   27.8674   35.5679  103.3435 C   0  0  0  0  0  0  0  0  0  0  0  0
   24.7458   33.2244  103.9477 C   0  0  0  0  0  0  0  0  0  0  0  0
   23.7200   32.4191  104.4159 O   0  0  0  0  0  0  0  0  0  0  0  0
   24.5921   34.7395  104.3474 C   0  0  0  0  0  0  0  0  0  0  0  0
   25.5431   35.5388  103.5608 N   0  0  0  0  0  0  0  0  0  0  0  0
   27.9575   36.7530  102.9495 O   0  0  0  0  0  0  0  0  0  0  0  0
   26.7714   34.9575  103.7370 C   0  0  0  0  0  0  0  0  0  0  0  0
  1  2  1  0
  2  3  1  0
  2  4  1  0
  2  5  1  0
  4  6  2  0
  4  7  1  0
  7  8  1  0
  8  9  1  0
  9 10  1  0
  7 11  1  0
 10 12  1  0
 12 13  1  0
 12 14  1  0
 14 15  1  0
 11 16  2  0
  9 17  1  0
 11 17  1  0
 15 17  1  0
M  END
>  <generation_time>  (31) 
1.2258765697479248

$$$$

     RDKit          3D

 22 24  0  0  0  0  0  0  0  0999 V2000
   24.9780   35.0948  102.7158 C   0  0  0  0  0  0  0  0  0  0  0  0
   25.6739   35.6876  101.8370 N   0  0  0  0  0  0  0  0  0  0  0  0
   23.6809   34.9667  102.8491 N   0  0  0  0  0  0  0  0  0  0  0  0
   24.9051   36.5034  100.8455 C   0  0  0  0  0  0  0  0  0  0  0  0
   25.8333   34.5924  103.8023 N   0  0  0  0  0  0  0  0  0  0  0  0
   25.4857   37.2601  100.2234 N   0  0  0  0  0  0  0  0  0  0  0  0
   23.8100   35.7667  100.4206 C   0  0  0  0  0  0  0  0  0  0  0  0
   23.1804   35.2443  101.5806 C   0  0  0  0  0  0  0  0  0  0  0  0
   27.1683   34.9614  103.8101 C   0  0  0  0  0  0  0  0  0  0  0  0
   25.2887   33.7739  104.8122 C   0  0  0  0  0  0  0  0  0  0  0  0
   28.1297   34.0632  103.4827 C   0  0  0  0  0  0  0  0  0  0  0  0
   29.5397   34.2890  103.6081 C   0  0  0  0  0  0  0  0  0  0  0  0
   27.6455   36.2824  104.1263 C   0  0  0  0  0  0  0  0  0  0  0  0
   25.2094   34.4481  106.1341 C   0  0  0  0  0  0  0  0  0  0  0  0
   24.1244   34.6793  106.5806 O   0  0  0  0  0  0  0  0  0  0  0  0
   28.9599   36.5787  104.1373 C   0  0  0  0  0  0  0  0  0  0  0  0
   29.9018   35.5823  103.7780 C   0  0  0  0  0  0  0  0  0  0  0  0
   30.5787   33.2386  103.2938 C   0  0  0  0  0  0  0  0  0  0  0  0
   31.8649   33.7745  103.7431 C   0  0  0  0  0  0  0  0  0  0  0  0
   31.2065   35.8172  103.6709 O   0  0  0  0  0  0  0  0  0  0  0  0
   32.0290   34.8614  103.4672 N   0  0  0  0  0  0  0  0  0  0  0  0
   26.3281   34.4251  106.8758 O   0  0  0  0  0  0  0  0  0  0  0  0
  1  2  2  0
  1  3  1  0
  2  4  1  0
  1  5  1  0
  4  6  1  0
  4  7  2  0
  3  8  2  0
  7  8  1  0
  5  9  1  0
  5 10  1  0
  9 11  2  0
 11 12  1  0
  9 13  1  0
 10 14  1  0
 14 15  2  0
 13 16  2  0
 12 17  2  0
 16 17  1  0
 12 18  1  0
 18 19  1  0
 17 20  1  0
 19 21  1  0
 20 21  1  0
 14 22  1  0
M  END
>  <generation_time>  (32) 
1.6102938652038574

$$$$

     RDKit          3D

 18 18  0  0  0  0  0  0  0  0999 V2000
   29.3156   36.5828  103.5551 O   0  0  0  0  0  0  0  0  0  0  0  0
   29.1932   35.2815  103.6523 C   0  0  0  0  0  0  0  0  0  0  0  0
   27.9111   34.7451  103.5025 N   0  0  0  0  0  0  0  0  0  0  0  0
   30.3039   34.4862  104.0830 C   0  0  0  0  0  0  0  0  0  0  0  0
   26.8756   35.5337  103.2570 C   0  0  0  0  0  0  0  0  0  0  0  0
   31.1822   34.1677  102.8939 C   0  0  0  0  0  0  0  0  0  0  0  0
   32.3280   33.6266  103.2008 O   0  0  0  0  0  0  0  0  0  0  0  0
   25.6335   35.0967  104.1269 C   0  0  0  0  0  0  0  0  0  0  0  0
   30.6465   34.3540  105.4006 C   0  0  0  0  0  0  0  0  0  0  0  0
   24.9313   34.0469  103.6743 C   0  0  0  0  0  0  0  0  0  0  0  0
   30.6395   34.0593  101.8616 O   0  0  0  0  0  0  0  0  0  0  0  0
   26.6400   36.1219  102.2585 O   0  0  0  0  0  0  0  0  0  0  0  0
   25.4457   35.7158  105.3080 N   0  0  0  0  0  0  0  0  0  0  0  0
   24.4403   34.8439  105.8229 N   0  0  0  0  0  0  0  0  0  0  0  0
   24.0625   34.9981  107.1900 C   0  0  0  0  0  0  0  0  0  0  0  0
   24.1080   33.8952  104.9267 C   0  0  0  0  0  0  0  0  0  0  0  0
   23.0566   32.8001  105.1410 C   0  0  0  0  0  0  0  0  0  0  0  0
   24.9191   34.2605  108.1496 C   0  0  0  0  0  0  0  0  0  0  0  0
  1  2  2  0
  2  3  1  0
  2  4  1  0
  3  5  1  0
  4  6  1  0
  6  7  2  0
  5  8  1  0
  4  9  1  0
  8 10  1  0
  6 11  1  0
  5 12  2  0
  8 13  2  0
 13 14  1  0
 14 15  1  0
 10 16  2  0
 14 16  1  0
 16 17  1  0
 15 18  1  0
M  END
>  <generation_time>  (33) 
1.2987298965454102

$$$$

     RDKit          3D

 15 14  0  0  0  0  0  0  0  0999 V2000
   28.4758   34.4927  104.3734 C   0  0  0  0  0  0  0  0  0  0  0  0
   29.6545   34.9971  104.1876 N   0  0  0  0  0  0  0  0  0  0  0  0
   27.4135   35.1218  103.6843 C   0  0  0  0  0  0  0  0  0  0  0  0
   30.8686   34.3330  104.5121 C   0  0  0  0  0  0  0  0  0  0  0  0
   27.8226   36.0863  102.9841 O   0  0  0  0  0  0  0  0  0  0  0  0
   26.1558   34.9212  104.0462 N   0  0  0  0  0  0  0  0  0  0  0  0
   31.6130   33.9167  103.2805 C   0  0  0  0  0  0  0  0  0  0  0  0
   25.6377   33.9130  104.9169 C   0  0  0  0  0  0  0  0  0  0  0  0
   25.1846   35.2887  102.9143 C   0  0  0  0  0  0  0  0  0  0  0  0
   24.2178   33.8654  105.0154 C   0  0  0  0  0  0  0  0  0  0  0  0
   23.8125   34.6475  105.9382 N   0  0  0  0  0  0  0  0  0  0  0  0
   22.5435   35.1689  105.8275 C   0  0  0  0  0  0  0  0  0  0  0  0
   31.1261   34.1247  102.1626 O   0  0  0  0  0  0  0  0  0  0  0  0
   32.7721   33.4072  103.3892 O   0  0  0  0  0  0  0  0  0  0  0  0
   24.6200   34.7372  107.0977 C   0  0  0  0  0  0  0  0  0  0  0  0
  1  2  1  0
  1  3  1  0
  2  4  1  0
  3  5  2  0
  3  6  1  0
  4  7  1  0
  6  8  1  0
  6  9  1  0
  8 10  1  0
 10 11  1  0
 11 12  1  0
  7 13  2  0
  7 14  1  0
 11 15  1  0
M  END
>  <generation_time>  (34) 
1.1595888137817383

$$$$

     RDKit          3D

 15 16  0  0  0  0  0  0  0  0999 V2000
   31.3181   33.2338  102.9631 C   0  0  0  0  0  0  0  0  0  0  0  0
   30.8241   34.1962  103.6974 C   0  0  0  0  0  0  0  0  0  0  0  0
   31.6909   35.1892  104.0807 O   0  0  0  0  0  0  0  0  0  0  0  0
   32.6335   33.3341  102.6085 O   0  0  0  0  0  0  0  0  0  0  0  0
   29.4414   34.5775  103.8151 C   0  0  0  0  0  0  0  0  0  0  0  0
   28.4530   33.6802  104.0925 C   0  0  0  0  0  0  0  0  0  0  0  0
   29.0798   35.9069  103.5834 C   0  0  0  0  0  0  0  0  0  0  0  0
   27.1500   34.1917  104.0332 N   0  0  0  0  0  0  0  0  0  0  0  0
   26.0562   33.2817  104.2875 C   0  0  0  0  0  0  0  0  0  0  0  0
   26.7979   35.4654  103.9783 C   0  0  0  0  0  0  0  0  0  0  0  0
   27.8095   36.3951  103.6359 N   0  0  0  0  0  0  0  0  0  0  0  0
   24.9452   33.7508  103.6468 C   0  0  0  0  0  0  0  0  0  0  0  0
   25.4987   35.9032  103.9664 N   0  0  0  0  0  0  0  0  0  0  0  0
   29.8334   36.8111  103.4466 O   0  0  0  0  0  0  0  0  0  0  0  0
   24.5977   34.9358  104.3613 C   0  0  0  0  0  0  0  0  0  0  0  0
  1  2  1  0
  2  3  1  0
  1  4  1  0
  2  5  1  0
  5  6  2  0
  5  7  1  0
  6  8  1  0
  8  9  1  0
  8 10  1  0
  7 11  1  0
 10 11  2  0
  9 12  1  0
 10 13  1  0
  7 14  2  0
 12 15  1  0
 13 15  1  0
M  END
>  <generation_time>  (35) 
1.1413924694061279

$$$$

     RDKit          3D

 16 17  0  0  0  0  0  0  0  0999 V2000
   32.0768   33.8719  103.8908 C   0  0  0  0  0  0  0  0  0  0  0  0
   31.5379   34.2914  104.9106 C   0  0  0  0  0  0  0  0  0  0  0  0
   30.2386   34.5969  105.1290 C   0  0  0  0  0  0  0  0  0  0  0  0
   31.3031   33.8103  102.6752 C   0  0  0  0  0  0  0  0  0  0  0  0
   29.4898   34.6457  103.9730 C   0  0  0  0  0  0  0  0  0  0  0  0
   28.0399   35.0160  104.0844 N   0  0  0  0  0  0  0  0  0  0  0  0
   31.8864   33.4655  101.5620 O   0  0  0  0  0  0  0  0  0  0  0  0
   29.9695   34.2251  102.7392 N   0  0  0  0  0  0  0  0  0  0  0  0
   27.6134   36.1197  103.4772 C   0  0  0  0  0  0  0  0  0  0  0  0
   27.1421   34.2024  104.8188 C   0  0  0  0  0  0  0  0  0  0  0  0
   26.1803   35.9504  103.2585 N   0  0  0  0  0  0  0  0  0  0  0  0
   28.3698   36.8336  102.7374 O   0  0  0  0  0  0  0  0  0  0  0  0
   25.5384   36.5556  102.1439 C   0  0  0  0  0  0  0  0  0  0  0  0
   26.0350   36.5004  100.8714 C   0  0  0  0  0  0  0  0  0  0  0  0
   25.7808   34.9079  104.1581 C   0  0  0  0  0  0  0  0  0  0  0  0
   24.8344   33.9841  103.5399 C   0  0  0  0  0  0  0  0  0  0  0  0
  1  2  2  0
  2  3  1  0
  1  4  1  0
  3  5  2  0
  5  6  1  0
  4  7  2  0
  4  8  1  0
  5  8  1  0
  6  9  1  0
  6 10  1  0
  9 11  1  0
  9 12  2  0
 11 13  1  0
 13 14  1  0
 10 15  1  0
 11 15  1  0
 15 16  1  0
M  END
>  <generation_time>  (36) 
1.2288918495178223

$$$$

     RDKit          3D

 19 20  0  0  0  0  0  0  0  0999 V2000
   32.2272   33.8904  102.1379 O   0  0  0  0  0  0  0  0  0  0  0  0
   31.9074   33.7171  103.4862 C   0  0  0  0  0  0  0  0  0  0  0  0
   32.3253   34.4351  104.4012 O   0  0  0  0  0  0  0  0  0  0  0  0
   30.2394   33.7959  103.4703 C   0  0  0  0  0  0  0  0  0  0  0  0
   29.8724   35.1768  103.6349 C   0  0  0  0  0  0  0  0  0  0  0  0
   28.4728   35.4680  103.5605 N   0  0  0  0  0  0  0  0  0  0  0  0
   28.0308   36.5087  102.9443 O   0  0  0  0  0  0  0  0  0  0  0  0
   27.6967   34.6999  104.2949 C   0  0  0  0  0  0  0  0  0  0  0  0
   26.4105   34.8261  103.8499 C   0  0  0  0  0  0  0  0  0  0  0  0
   27.7803   34.4281  105.6017 O   0  0  0  0  0  0  0  0  0  0  0  0
   26.1969   35.7670  102.8649 N   0  0  0  0  0  0  0  0  0  0  0  0
   27.0467   36.5430  102.4189 C   0  0  0  0  0  0  0  0  0  0  0  0
   26.6787   37.4350  101.5531 O   0  0  0  0  0  0  0  0  0  0  0  0
   25.3205   33.9505  104.4532 C   0  0  0  0  0  0  0  0  0  0  0  0
   24.6954   33.0599  103.4477 C   0  0  0  0  0  0  0  0  0  0  0  0
   24.3803   34.8148  105.0099 C   0  0  0  0  0  0  0  0  0  0  0  0
   23.5269   34.1987  106.1272 C   0  0  0  0  0  0  0  0  0  0  0  0
   23.5906   32.2965  104.1945 C   0  0  0  0  0  0  0  0  0  0  0  0
   22.8244   33.1696  105.2396 N   0  0  0  0  0  0  0  0  0  0  0  0
  1  2  1  0
  2  3  1  0
  2  4  1  0
  4  5  1  0
  5  6  1  0
  6  7  1  0
  6  8  1  0
  8  9  1  0
  8 10  2  0
  9 11  2  0
  7 12  1  0
 11 12  1  0
 12 13  2  0
  9 14  1  0
 14 15  1  0
 14 16  1  0
 16 17  1  0
 15 18  1  0
 17 19  1  0
 18 19  1  0
M  END
>  <generation_time>  (37) 
1.1986067295074463

$$$$

     RDKit          3D

 17 18  0  0  0  0  0  0  0  0999 V2000
   31.8643   34.0790  102.3776 O   0  0  0  0  0  0  0  0  0  0  0  0
   31.4336   34.0314  103.6811 C   0  0  0  0  0  0  0  0  0  0  0  0
   30.1650   34.6220  103.7736 C   0  0  0  0  0  0  0  0  0  0  0  0
   32.3099   33.7392  104.5027 O   0  0  0  0  0  0  0  0  0  0  0  0
   29.8674   35.9020  103.5723 C   0  0  0  0  0  0  0  0  0  0  0  0
   29.1493   33.7138  104.1834 C   0  0  0  0  0  0  0  0  0  0  0  0
   27.8292   34.1172  104.2962 C   0  0  0  0  0  0  0  0  0  0  0  0
   26.7881   33.2353  104.5726 N   0  0  0  0  0  0  0  0  0  0  0  0
   27.4189   35.4761  103.9802 C   0  0  0  0  0  0  0  0  0  0  0  0
   26.1885   35.8567  104.0678 N   0  0  0  0  0  0  0  0  0  0  0  0
   25.5661   33.6070  104.5440 C   0  0  0  0  0  0  0  0  0  0  0  0
   28.5367   36.3945  103.6771 N   0  0  0  0  0  0  0  0  0  0  0  0
   25.2297   35.0040  104.3463 C   0  0  0  0  0  0  0  0  0  0  0  0
   24.0057   35.3320  104.3830 O   0  0  0  0  0  0  0  0  0  0  0  0
   24.5467   32.5912  104.8713 C   0  0  0  0  0  0  0  0  0  0  0  0
   23.6654   32.2758  103.8036 C   0  0  0  0  0  0  0  0  0  0  0  0
   22.7374   31.2025  104.0364 C   0  0  0  0  0  0  0  0  0  0  0  0
  1  2  1  0
  2  3  1  0
  2  4  2  0
  3  5  2  0
  3  6  1  0
  6  7  2  0
  7  8  1  0
  7  9  1  0
  9 10  1  0
  8 11  2  0
  5 12  1  0
  9 12  2  0
 10 13  1  0
 11 13  1  0
 13 14  2  0
 11 15  1  0
 15 16  1  0
 16 17  1  0
M  END
>  <generation_time>  (38) 
1.1883182525634766

$$$$

     RDKit          3D

 22 24  0  0  0  0  0  0  0  0999 V2000
   24.7479   36.6589  102.1023 O   0  0  0  0  0  0  0  0  0  0  0  0
   25.4404   35.6352  102.2061 C   0  0  0  0  0  0  0  0  0  0  0  0
   25.1264   34.6059  102.9927 N   0  0  0  0  0  0  0  0  0  0  0  0
   26.7522   35.6095  101.4460 C   0  0  0  0  0  0  0  0  0  0  0  0
   23.8703   34.3825  103.5888 C   0  0  0  0  0  0  0  0  0  0  0  0
   26.9796   36.8234  100.7370 O   0  0  0  0  0  0  0  0  0  0  0  0
   26.1633   33.7521  103.4634 C   0  0  0  0  0  0  0  0  0  0  0  0
   26.4658   33.7945  104.8025 N   0  0  0  0  0  0  0  0  0  0  0  0
   26.3260   34.8351  105.6367 C   0  0  0  0  0  0  0  0  0  0  0  0
   25.9737   35.9777  105.1759 O   0  0  0  0  0  0  0  0  0  0  0  0
   26.1747   34.5049  106.9830 C   0  0  0  0  0  0  0  0  0  0  0  0
   26.6269   33.8727  107.6836 O   0  0  0  0  0  0  0  0  0  0  0  0
   25.2708   35.3064  107.7267 O   0  0  0  0  0  0  0  0  0  0  0  0
   27.6086   35.9113  102.7141 C   0  0  0  0  0  0  0  0  0  0  0  0
   28.8589   36.3624  102.6731 N   0  0  0  0  0  0  0  0  0  0  0  0
   27.5857   34.3854  103.0203 C   0  0  0  0  0  0  0  0  0  0  0  0
   29.7509   35.7677  103.5551 C   0  0  0  0  0  0  0  0  0  0  0  0
   29.1034   34.4735  103.8465 C   0  0  0  0  0  0  0  0  0  0  0  0
   30.0317   33.3773  103.4176 C   0  0  0  0  0  0  0  0  0  0  0  0
   30.9842   33.8891  102.6631 C   0  0  0  0  0  0  0  0  0  0  0  0
   32.3974   33.3838  103.0181 O   0  0  0  0  0  0  0  0  0  0  0  0
   31.0400   35.3900  103.2093 N   0  0  0  0  0  0  0  0  0  0  0  0
  1  2  2  0
  2  3  1  0
  2  4  1  0
  3  5  1  0
  4  6  1  0
  3  7  1  0
  7  8  1  0
  8  9  1  0
  9 10  2  0
  9 11  1  0
 11 12  2  0
 11 13  1  0
  4 14  1  0
 14 15  1  0
  7 16  1  0
 14 16  1  0
 15 17  1  0
 16 18  1  0
 17 18  1  0
 18 19  1  0
 19 20  1  0
 20 21  1  0
 17 22  1  0
 20 22  1  0
M  END
>  <generation_time>  (39) 
1.350715160369873

$$$$

     RDKit          3D

 20 21  0  0  0  0  0  0  0  0999 V2000
   24.7505   35.9272  101.5246 C   0  0  0  0  0  0  0  0  0  0  0  0
   25.4953   36.5835  100.7988 C   0  0  0  0  0  0  0  0  0  0  0  0
   25.1544   35.3582  102.6386 C   0  0  0  0  0  0  0  0  0  0  0  0
   24.3117   34.4597  103.5475 C   0  0  0  0  0  0  0  0  0  0  0  0
   26.5589   35.3084  102.7641 C   0  0  0  0  0  0  0  0  0  0  0  0
   27.0311   36.3606  101.6509 S   0  0  0  0  0  0  0  0  0  0  0  0
   27.3533   34.6690  103.7044 N   0  0  0  0  0  0  0  0  0  0  0  0
   23.9529   34.9660  104.6711 N   0  0  0  0  0  0  0  0  0  0  0  0
   23.8978   33.3548  103.2159 O   0  0  0  0  0  0  0  0  0  0  0  0
   28.7092   34.7615  103.7283 C   0  0  0  0  0  0  0  0  0  0  0  0
   23.2097   34.2445  105.7311 C   0  0  0  0  0  0  0  0  0  0  0  0
   24.0576   34.0161  106.9430 C   0  0  0  0  0  0  0  0  0  0  0  0
   29.4115   33.8074  103.8461 C   0  0  0  0  0  0  0  0  0  0  0  0
   29.2605   36.1156  103.7615 C   0  0  0  0  0  0  0  0  0  0  0  0
   30.6510   36.2307  103.6967 C   0  0  0  0  0  0  0  0  0  0  0  0
   23.8931   34.6805  107.9564 O   0  0  0  0  0  0  0  0  0  0  0  0
   25.1138   33.1966  106.8521 O   0  0  0  0  0  0  0  0  0  0  0  0
   31.4098   35.0985  103.7980 N   0  0  0  0  0  0  0  0  0  0  0  0
   30.8237   33.8513  103.7929 C   0  0  0  0  0  0  0  0  0  0  0  0
   31.7445   32.7784  103.8455 C   0  0  0  0  0  0  0  0  0  0  0  0
  1  2  2  0
  1  3  1  0
  3  4  1  0
  3  5  2  0
  2  6  1  0
  5  6  1  0
  5  7  1  0
  4  8  1  0
  4  9  2  0
  7 10  1  0
  8 11  1  0
 11 12  1  0
 10 13  1  0
 10 14  2  0
 14 15  1  0
 12 16  1  0
 12 17  2  0
 15 18  2  0
 13 19  2  0
 18 19  1  0
 19 20  1  0
M  END
>  <generation_time>  (40) 
1.3596735000610352

$$$$

     RDKit          3D

 15 14  0  0  0  0  0  0  0  0999 V2000
   29.7048   33.9860  103.9617 C   0  0  0  0  0  0  0  0  0  0  0  0
   31.0651   34.1960  103.9152 C   0  0  0  0  0  0  0  0  0  0  0  0
   28.9129   35.1001  103.7354 N   0  0  0  0  0  0  0  0  0  0  0  0
   31.7454   34.3318  102.7172 N   0  0  0  0  0  0  0  0  0  0  0  0
   31.5376   35.0681  104.9800 C   0  0  0  0  0  0  0  0  0  0  0  0
   31.8312   33.1072  104.0231 C   0  0  0  0  0  0  0  0  0  0  0  0
   27.4809   35.0087  103.5606 C   0  0  0  0  0  0  0  0  0  0  0  0
   26.7235   34.0809  104.1629 N   0  0  0  0  0  0  0  0  0  0  0  0
   27.1241   35.6963  102.4537 O   0  0  0  0  0  0  0  0  0  0  0  0
   29.5424   36.3687  103.6941 C   0  0  0  0  0  0  0  0  0  0  0  0
   25.3254   34.0171  103.9067 C   0  0  0  0  0  0  0  0  0  0  0  0
   24.9890   32.5859  104.0150 C   0  0  0  0  0  0  0  0  0  0  0  0
   24.5763   34.7872  105.0368 C   0  0  0  0  0  0  0  0  0  0  0  0
   25.1257   34.9379  106.0964 O   0  0  0  0  0  0  0  0  0  0  0  0
   23.6107   35.5145  104.7479 O   0  0  0  0  0  0  0  0  0  0  0  0
  1  2  1  0
  1  3  1  0
  2  4  1  0
  2  5  1  0
  2  6  1  0
  3  7  1  0
  7  8  1  0
  7  9  2  0
  3 10  1  0
  8 11  1  0
 11 12  1  0
 11 13  1  0
 13 14  2  0
 13 15  1  0
M  END
>  <generation_time>  (41) 
0.998046875

$$$$

     RDKit          3D

 18 19  0  0  0  0  0  0  0  0999 V2000
   29.9685   36.1144  103.7755 C   0  0  0  0  0  0  0  0  0  0  0  0
   30.9713   35.2840  103.8871 N   0  0  0  0  0  0  0  0  0  0  0  0
   28.7626   35.4671  103.6554 N   0  0  0  0  0  0  0  0  0  0  0  0
   28.9298   34.1406  103.9943 C   0  0  0  0  0  0  0  0  0  0  0  0
   27.4103   36.0377  103.6150 C   0  0  0  0  0  0  0  0  0  0  0  0
   30.3912   33.9823  104.0352 C   0  0  0  0  0  0  0  0  0  0  0  0
   31.0596   33.4218  105.2742 C   0  0  0  0  0  0  0  0  0  0  0  0
   30.8951   33.2634  102.7738 C   0  0  0  0  0  0  0  0  0  0  0  0
   32.1670   33.5798  102.4001 O   0  0  0  0  0  0  0  0  0  0  0  0
   29.9840   37.3075  103.4841 O   0  0  0  0  0  0  0  0  0  0  0  0
   26.5738   35.4239  104.5858 O   0  0  0  0  0  0  0  0  0  0  0  0
   25.2970   35.0815  104.2231 C   0  0  0  0  0  0  0  0  0  0  0  0
   24.7212   34.3271  105.1931 C   0  0  0  0  0  0  0  0  0  0  0  0
   24.9044   34.7853  106.4426 O   0  0  0  0  0  0  0  0  0  0  0  0
   25.4056   34.3854  102.8858 C   0  0  0  0  0  0  0  0  0  0  0  0
   26.1108   35.3378  101.9702 C   0  0  0  0  0  0  0  0  0  0  0  0
   27.0987   35.7520  102.2522 C   0  0  0  0  0  0  0  0  0  0  0  0
   25.1589   35.8556  101.0455 O   0  0  0  0  0  0  0  0  0  0  0  0
  1  2  1  0
  1  3  1  0
  3  4  1  0
  3  5  1  0
  2  6  1  0
  4  6  1  0
  6  7  1  0
  6  8  1  0
  8  9  1  0
  1 10  2  0
  5 11  1  0
 11 12  1  0
 12 13  1  0
 13 14  1  0
 12 15  1  0
 15 16  1  0
  5 17  1  0
 16 17  1  0
 16 18  1  0
M  END
>  <generation_time>  (42) 
1.2896122932434082

$$$$

     RDKit          3D

 19 21  0  0  0  0  0  0  0  0999 V2000
   24.0919   33.7856  107.6116 C   0  0  0  0  0  0  0  0  0  0  0  0
   24.4733   34.0211  106.4452 C   0  0  0  0  0  0  0  0  0  0  0  0
   23.9126   33.5414  105.2777 C   0  0  0  0  0  0  0  0  0  0  0  0
   22.8814   33.2946  107.8848 C   0  0  0  0  0  0  0  0  0  0  0  0
   25.8266   34.6818  106.1530 C   0  0  0  0  0  0  0  0  0  0  0  0
   24.4820   33.7622  103.9385 C   0  0  0  0  0  0  0  0  0  0  0  0
   26.3890   34.7655  104.8418 C   0  0  0  0  0  0  0  0  0  0  0  0
   22.0980   32.9937  106.6921 C   0  0  0  0  0  0  0  0  0  0  0  0
   20.7438   32.4179  106.9669 C   0  0  0  0  0  0  0  0  0  0  0  0
   22.5750   33.0235  105.4962 C   0  0  0  0  0  0  0  0  0  0  0  0
   25.6943   34.2601  103.7970 C   0  0  0  0  0  0  0  0  0  0  0  0
   26.3274   34.4626  102.4511 C   0  0  0  0  0  0  0  0  0  0  0  0
   27.6515   35.2383  104.6320 N   0  0  0  0  0  0  0  0  0  0  0  0
   28.1746   35.4902  103.4573 C   0  0  0  0  0  0  0  0  0  0  0  0
   27.5169   35.0884  102.3789 N   0  0  0  0  0  0  0  0  0  0  0  0
   29.5171   35.9348  103.4368 O   0  0  0  0  0  0  0  0  0  0  0  0
   25.7421   34.3759  101.4556 O   0  0  0  0  0  0  0  0  0  0  0  0
   19.8004   32.4856  106.0104 N   0  0  0  0  0  0  0  0  0  0  0  0
   20.2182   32.3893  108.2012 O   0  0  0  0  0  0  0  0  0  0  0  0
  1  2  1  0
  2  3  2  0
  1  4  2  0
  2  5  1  0
  3  6  1  0
  5  7  2  0
  4  8  1  0
  8  9  1  0
  3 10  1  0
  8 10  2  0
  6 11  2  0
  7 11  1  0
 11 12  1  0
  7 13  1  0
 13 14  1  0
 12 15  1  0
 14 15  1  0
 14 16  2  0
 12 17  2  0
  9 18  1  0
  9 19  2  0
M  END
>  <generation_time>  (43) 
1.4168229103088379

$$$$

     RDKit          3D

 16 16  0  0  0  0  0  0  0  0999 V2000
   32.0784   33.5679  103.2385 C   0  0  0  0  0  0  0  0  0  0  0  0
   30.9938   34.3293  103.7482 C   0  0  0  0  0  0  0  0  0  0  0  0
   32.1966   33.3947  102.0543 O   0  0  0  0  0  0  0  0  0  0  0  0
   32.9199   33.0732  104.0648 O   0  0  0  0  0  0  0  0  0  0  0  0
   29.6475   33.9017  103.4008 C   0  0  0  0  0  0  0  0  0  0  0  0
   28.6604   34.9539  103.6381 N   0  0  0  0  0  0  0  0  0  0  0  0
   28.8985   36.2378  103.3743 C   0  0  0  0  0  0  0  0  0  0  0  0
   30.1560   36.5759  103.4755 O   0  0  0  0  0  0  0  0  0  0  0  0
   27.2181   34.5034  103.6357 C   0  0  0  0  0  0  0  0  0  0  0  0
   26.7317   33.6639  104.4689 N   0  0  0  0  0  0  0  0  0  0  0  0
   26.2814   35.2117  102.9559 C   0  0  0  0  0  0  0  0  0  0  0  0
   25.3794   33.7778  104.2622 C   0  0  0  0  0  0  0  0  0  0  0  0
   24.4084   32.8876  104.9629 C   0  0  0  0  0  0  0  0  0  0  0  0
   26.4666   36.1996  101.8697 C   0  0  0  0  0  0  0  0  0  0  0  0
   25.1915   34.6845  103.2273 N   0  0  0  0  0  0  0  0  0  0  0  0
   25.4023   36.4174  100.9865 C   0  0  0  0  0  0  0  0  0  0  0  0
  1  2  1  0
  1  3  2  0
  1  4  1  0
  2  5  1  0
  5  6  1  0
  6  7  1  0
  7  8  2  0
  6  9  1  0
  9 10  2  0
  9 11  1  0
 10 12  1  0
 12 13  1  0
 11 14  2  3
 11 15  1  0
 12 15  2  0
 14 16  1  0
M  END
>  <generation_time>  (44) 
1.1218688488006592

$$$$

     RDKit          3D

 18 19  0  0  0  0  0  0  0  0999 V2000
   32.3344   33.7042  103.0285 O   0  0  0  0  0  0  0  0  0  0  0  0
   31.7177   33.9580  104.1967 C   0  0  0  0  0  0  0  0  0  0  0  0
   30.3629   34.4957  104.0621 C   0  0  0  0  0  0  0  0  0  0  0  0
   32.1936   33.4070  105.1362 O   0  0  0  0  0  0  0  0  0  0  0  0
   29.1746   33.7063  104.0184 C   0  0  0  0  0  0  0  0  0  0  0  0
   30.0543   35.8515  104.0489 C   0  0  0  0  0  0  0  0  0  0  0  0
   31.1526   36.7072  103.9592 O   0  0  0  0  0  0  0  0  0  0  0  0
   28.7496   36.3446  104.0591 N   0  0  0  0  0  0  0  0  0  0  0  0
   27.9272   34.1668  103.8492 N   0  0  0  0  0  0  0  0  0  0  0  0
   27.7296   35.5233  103.9022 C   0  0  0  0  0  0  0  0  0  0  0  0
   26.3532   35.9987  103.8187 N   0  0  0  0  0  0  0  0  0  0  0  0
   25.5101   35.7034  102.6463 C   0  0  0  0  0  0  0  0  0  0  0  0
   24.3393   35.1514  102.7524 C   0  0  0  0  0  0  0  0  0  0  0  0
   25.9594   36.1344  101.3836 C   0  0  0  0  0  0  0  0  0  0  0  0
   27.2414   36.8411  101.2575 F   0  0  0  0  0  0  0  0  0  0  0  0
   25.1916   36.0318  100.3295 C   0  0  0  0  0  0  0  0  0  0  0  0
   23.9631   35.4621  100.4080 C   0  0  0  0  0  0  0  0  0  0  0  0
   23.5712   35.0786  101.7879 C   0  0  0  0  0  0  0  0  0  0  0  0
  1  2  2  0
  2  3  1  0
  2  4  1  0
  3  5  2  0
  3  6  1  0
  6  7  2  0
  6  8  1  0
  5  9  1  0
  8 10  1  0
  9 10  2  0
 10 11  1  0
 11 12  1  0
 12 13  1  0
 12 14  2  0
 14 15  1  0
 14 16  1  0
 16 17  2  0
 13 18  2  0
 17 18  1  0
M  END
>  <generation_time>  (45) 
1.1935591697692871

$$$$

     RDKit          3D

 23 25  0  0  0  0  0  0  0  0999 V2000
   31.9354   33.2217  102.7778 O   0  0  0  0  0  0  0  0  0  0  0  0
   31.4307   33.9734  103.6684 C   0  0  0  0  0  0  0  0  0  0  0  0
   32.0121   34.2237  104.7886 O   0  0  0  0  0  0  0  0  0  0  0  0
   30.3173   34.8466  103.3548 C   0  0  0  0  0  0  0  0  0  0  0  0
   30.3299   36.1468  103.3363 N   0  0  0  0  0  0  0  0  0  0  0  0
   29.1279   36.7906  103.2629 O   0  0  0  0  0  0  0  0  0  0  0  0
   28.1160   35.8541  103.2839 C   0  0  0  0  0  0  0  0  0  0  0  0
   28.8950   34.5756  103.5090 C   0  0  0  0  0  0  0  0  0  0  0  0
   26.7028   35.6889  103.4464 N   0  0  0  0  0  0  0  0  0  0  0  0
   28.1598   33.3394  103.5967 C   0  0  0  0  0  0  0  0  0  0  0  0
   26.2058   34.7232  103.5117 C   0  0  0  0  0  0  0  0  0  0  0  0
   26.7981   33.4320  103.5948 N   0  0  0  0  0  0  0  0  0  0  0  0
   24.5531   34.6606  103.5425 C   0  0  0  0  0  0  0  0  0  0  0  0
   24.0206   33.8528  104.5061 N   0  0  0  0  0  0  0  0  0  0  0  0
   23.8959   34.3707  105.8602 C   0  0  0  0  0  0  0  0  0  0  0  0
   23.1078   32.8301  104.3142 C   0  0  0  0  0  0  0  0  0  0  0  0
   22.9852   32.1823  103.2471 O   0  0  0  0  0  0  0  0  0  0  0  0
   24.9175   35.1326  106.3966 O   0  0  0  0  0  0  0  0  0  0  0  0
   22.5152   32.1681  105.5554 C   0  0  0  0  0  0  0  0  0  0  0  0
   23.6257   33.0368  106.7353 C   0  0  0  0  0  0  0  0  0  0  0  0
   22.9687   33.2743  107.9319 O   0  0  0  0  0  0  0  0  0  0  0  0
   25.6532   34.4246  107.4521 C   0  0  0  0  0  0  0  0  0  0  0  0
   22.7723   30.8912  105.6659 O   0  0  0  0  0  0  0  0  0  0  0  0
  1  2  2  0
  2  3  1  0
  2  4  1  0
  4  5  2  0
  5  6  1  0
  6  7  1  0
  4  8  1  0
  7  8  2  0
  7  9  1  0
  8 10  1  0
  9 11  2  0
 10 12  2  0
 11 12  1  0
 11 13  1  0
 13 14  1  0
 14 15  1  0
 14 16  1  0
 16 17  2  0
 15 18  1  0
 16 19  1  0
 15 20  1  0
 19 20  1  0
 20 21  1  0
 18 22  1  0
 19 23  1  0
M  END
>  <generation_time>  (46) 
1.4735958576202393

$$$$

     RDKit          3D

 17 16  0  0  0  0  0  0  0  0999 V2000
   25.0119   33.9740  108.2209 O   0  0  0  0  0  0  0  0  0  0  0  0
   25.7603   34.0838  107.2718 C   0  0  0  0  0  0  0  0  0  0  0  0
   25.3835   34.5907  106.0200 C   0  0  0  0  0  0  0  0  0  0  0  0
   26.9750   33.9124  107.4716 O   0  0  0  0  0  0  0  0  0  0  0  0
   24.3132   34.3385  105.5599 O   0  0  0  0  0  0  0  0  0  0  0  0
   26.5463   34.7885  105.1102 N   0  0  0  0  0  0  0  0  0  0  0  0
   26.3777   34.8939  103.7065 C   0  0  0  0  0  0  0  0  0  0  0  0
   27.6526   35.4642  103.1441 C   0  0  0  0  0  0  0  0  0  0  0  0
   26.0876   33.7277  102.8846 C   0  0  0  0  0  0  0  0  0  0  0  0
   28.8749   35.0165  103.7064 N   0  0  0  0  0  0  0  0  0  0  0  0
   30.0349   35.5687  103.5717 C   0  0  0  0  0  0  0  0  0  0  0  0
   27.5667   36.3827  102.3774 O   0  0  0  0  0  0  0  0  0  0  0  0
   30.2165   36.5118  102.9187 O   0  0  0  0  0  0  0  0  0  0  0  0
   31.0952   34.8171  104.3282 C   0  0  0  0  0  0  0  0  0  0  0  0
   31.7917   33.9671  103.5888 C   0  0  0  0  0  0  0  0  0  0  0  0
   32.7819   33.3185  103.9088 O   0  0  0  0  0  0  0  0  0  0  0  0
   31.4448   33.9611  102.2519 O   0  0  0  0  0  0  0  0  0  0  0  0
  1  2  2  0
  2  3  1  0
  2  4  1  0
  3  5  2  0
  3  6  1  0
  6  7  1  0
  7  8  1  0
  7  9  1  0
  8 10  1  0
 10 11  1  0
  8 12  2  0
 11 13  2  0
 11 14  1  0
 14 15  1  0
 15 16  1  0
 15 17  2  0
M  END
>  <generation_time>  (47) 
1.0950689315795898

$$$$

     RDKit          3D

 20 21  0  0  0  0  0  0  0  0999 V2000
   32.2656   33.7909  104.5138 C   0  0  0  0  0  0  0  0  0  0  0  0
   32.0412   33.6497  103.3437 C   0  0  0  0  0  0  0  0  0  0  0  0
   31.2357   34.4803  105.3210 C   0  0  0  0  0  0  0  0  0  0  0  0
   30.7803   33.7962  102.7014 C   0  0  0  0  0  0  0  0  0  0  0  0
   29.7418   34.2875  103.5127 C   0  0  0  0  0  0  0  0  0  0  0  0
   29.9770   34.5897  104.8624 C   0  0  0  0  0  0  0  0  0  0  0  0
   28.5533   34.7288  103.1249 N   0  0  0  0  0  0  0  0  0  0  0  0
   27.3388   33.8759  103.3980 C   0  0  0  0  0  0  0  0  0  0  0  0
   26.1522   34.5990  103.7364 C   0  0  0  0  0  0  0  0  0  0  0  0
   28.2409   36.0156  102.5965 C   0  0  0  0  0  0  0  0  0  0  0  0
   26.9522   36.3394  102.3467 N   0  0  0  0  0  0  0  0  0  0  0  0
   25.9659   35.5420  102.5547 C   0  0  0  0  0  0  0  0  0  0  0  0
   25.0783   33.7603  104.2096 C   0  0  0  0  0  0  0  0  0  0  0  0
   24.9229   35.4474  102.1713 O   0  0  0  0  0  0  0  0  0  0  0  0
   29.2496   36.7195  102.4323 O   0  0  0  0  0  0  0  0  0  0  0  0
   24.6782   33.8253  105.4978 N   0  0  0  0  0  0  0  0  0  0  0  0
   25.5829   34.2800  106.4885 C   0  0  0  0  0  0  0  0  0  0  0  0
   26.7841   34.4990  106.2667 O   0  0  0  0  0  0  0  0  0  0  0  0
   25.1260   34.4773  107.7619 N   0  0  0  0  0  0  0  0  0  0  0  0
   23.2611   33.8615  105.6391 C   0  0  0  0  0  0  0  0  0  0  0  0
  1  2  1  0
  1  3  2  0
  2  4  2  0
  4  5  1  0
  3  6  1  0
  5  6  2  0
  5  7  1  0
  7  8  1  0
  8  9  1  0
  7 10  1  0
 10 11  1  0
  9 12  1  0
 11 12  1  0
  9 13  1  0
 12 14  2  0
 10 15  2  0
 13 16  1  0
 16 17  1  0
 17 18  2  0
 17 19  1  0
 16 20  1  0
M  END
>  <generation_time>  (48) 
1.3215029239654541

$$$$

     RDKit          3D

 19 19  0  0  0  0  0  0  0  0999 V2000
   25.4103   35.0501  107.4024 O   0  0  0  0  0  0  0  0  0  0  0  0
   24.6799   34.5809  106.5804 C   0  0  0  0  0  0  0  0  0  0  0  0
   25.1578   34.9233  105.2868 C   0  0  0  0  0  0  0  0  0  0  0  0
   24.1502   33.1733  106.6865 C   0  0  0  0  0  0  0  0  0  0  0  0
   24.2496   34.9821  104.2478 O   0  0  0  0  0  0  0  0  0  0  0  0
   26.3836   35.1322  105.0829 N   0  0  0  0  0  0  0  0  0  0  0  0
   27.1202   35.1663  103.8507 C   0  0  0  0  0  0  0  0  0  0  0  0
   28.5723   35.2851  104.0226 C   0  0  0  0  0  0  0  0  0  0  0  0
   29.3907   34.1608  104.3924 C   0  0  0  0  0  0  0  0  0  0  0  0
   30.7564   34.2874  104.3946 C   0  0  0  0  0  0  0  0  0  0  0  0
   31.2400   35.4452  103.6713 C   0  0  0  0  0  0  0  0  0  0  0  0
   32.6282   35.2993  103.4861 O   0  0  0  0  0  0  0  0  0  0  0  0
   26.6065   35.1737  102.7065 C   0  0  0  0  0  0  0  0  0  0  0  0
   30.5345   36.3913  103.2078 N   0  0  0  0  0  0  0  0  0  0  0  0
   26.7189   36.0686  101.8786 C   0  0  0  0  0  0  0  0  0  0  0  0
   29.1883   36.3458  103.3727 C   0  0  0  0  0  0  0  0  0  0  0  0
   25.5059   36.4863  101.1755 C   0  0  0  0  0  0  0  0  0  0  0  0
   24.6361   35.5626  100.6811 C   0  0  0  0  0  0  0  0  0  0  0  0
   23.5801   36.1315   99.7544 C   0  0  0  0  0  0  0  0  0  0  0  0
  1  2  1  0
  2  3  1  0
  2  4  1  0
  3  5  2  0
  3  6  1  0
  6  7  1  0
  7  8  1  0
  8  9  1  0
  9 10  2  0
 10 11  1  0
 11 12  1  0
  7 13  2  3
 11 14  2  0
 13 15  1  0
  8 16  2  0
 14 16  1  0
 15 17  1  0
 17 18  1  0
 18 19  1  0
M  END
>  <generation_time>  (49) 
1.2830510139465332

$$$$

     RDKit          3D

 17 17  0  0  0  0  0  0  0  0999 V2000
   24.4794   34.5119  103.7867 O   0  0  0  0  0  0  0  0  0  0  0  0
   25.6666   34.6690  103.2823 C   0  0  0  0  0  0  0  0  0  0  0  0
   26.8507   34.2447  104.0042 N   0  0  0  0  0  0  0  0  0  0  0  0
   28.0915   34.6442  103.5796 C   0  0  0  0  0  0  0  0  0  0  0  0
   25.7544   35.4003  102.0749 C   0  0  0  0  0  0  0  0  0  0  0  0
   28.2752   36.0785  102.9843 N   0  0  0  0  0  0  0  0  0  0  0  0
   29.2259   33.9357  103.9028 C   0  0  0  0  0  0  0  0  0  0  0  0
   29.4717   36.6353  102.9290 O   0  0  0  0  0  0  0  0  0  0  0  0
   24.4639   35.7841  101.5124 C   0  0  0  0  0  0  0  0  0  0  0  0
   24.6136   36.4619  100.1637 C   0  0  0  0  0  0  0  0  0  0  0  0
   25.9151   36.4757   99.7221 C   0  0  0  0  0  0  0  0  0  0  0  0
   26.8972   35.6327  101.4266 C   0  0  0  0  0  0  0  0  0  0  0  0
   26.8772   36.1708  100.2299 N   0  0  0  0  0  0  0  0  0  0  0  0
   30.1248   33.8680  103.0007 C   0  0  0  0  0  0  0  0  0  0  0  0
   30.0526   33.4201  101.7675 O   0  0  0  0  0  0  0  0  0  0  0  0
   31.3691   34.3824  103.2714 N   0  0  0  0  0  0  0  0  0  0  0  0
   32.0895   34.2635  104.4614 C   0  0  0  0  0  0  0  0  0  0  0  0
  1  2  2  0
  2  3  1  0
  3  4  1  0
  2  5  1  0
  4  6  2  3
  4  7  1  0
  6  8  1  0
  5  9  1  0
  9 10  2  0
 10 11  1  0
  5 12  2  0
 11 13  2  0
 12 13  1  0
  7 14  1  0
 14 15  2  0
 14 16  1  0
 16 17  1  0
M  END
>  <generation_time>  (50) 
1.1569075584411621

$$$$

     RDKit          3D

 16 17  0  0  0  0  0  0  0  0999 V2000
   28.0386   33.3549  103.7166 C   0  0  0  0  0  0  0  0  0  0  0  0
   29.1144   34.1494  103.5389 C   0  0  0  0  0  0  0  0  0  0  0  0
   26.8267   34.0866  104.2605 N   0  0  0  0  0  0  0  0  0  0  0  0
   25.6551   34.1518  103.5100 C   0  0  0  0  0  0  0  0  0  0  0  0
   24.8018   33.1600  103.7383 C   0  0  0  0  0  0  0  0  0  0  0  0
   26.3452   34.0166  105.6196 C   0  0  0  0  0  0  0  0  0  0  0  0
   25.2779   33.1855  105.9064 N   0  0  0  0  0  0  0  0  0  0  0  0
   24.1543   33.4018  105.0496 C   0  0  0  0  0  0  0  0  0  0  0  0
   29.4109   35.4679  104.0529 C   0  0  0  0  0  0  0  0  0  0  0  0
   30.5434   36.1493  103.9347 N   0  0  0  0  0  0  0  0  0  0  0  0
   26.8565   34.5733  106.5764 O   0  0  0  0  0  0  0  0  0  0  0  0
   25.4952   35.1735  102.6247 O   0  0  0  0  0  0  0  0  0  0  0  0
   30.3814   33.6627  102.9461 C   0  0  0  0  0  0  0  0  0  0  0  0
   31.5662   34.2284  102.9310 C   0  0  0  0  0  0  0  0  0  0  0  0
   31.5630   35.5495  103.4381 C   0  0  0  0  0  0  0  0  0  0  0  0
   32.6264   33.5957  102.4679 O   0  0  0  0  0  0  0  0  0  0  0  0
  1  2  1  0
  1  3  1  0
  3  4  1  0
  4  5  1  0
  3  6  1  0
  6  7  1  0
  5  8  1  0
  7  8  1  0
  2  9  2  0
  9 10  1  0
  6 11  2  0
  4 12  2  0
  2 13  1  0
 13 14  2  0
 10 15  2  0
 14 15  1  0
 14 16  1  0
M  END
>  <generation_time>  (51) 
1.284787654876709

$$$$

     RDKit          3D

 14 14  0  0  0  0  0  0  0  0999 V2000
   29.9685   36.1144  103.7755 C   0  0  0  0  0  0  0  0  0  0  0  0
   30.9713   35.2840  103.8871 N   0  0  0  0  0  0  0  0  0  0  0  0
   31.3574   34.4314  102.8612 C   0  0  0  0  0  0  0  0  0  0  0  0
   31.5825   33.1536  103.2609 O   0  0  0  0  0  0  0  0  0  0  0  0
   29.8996   37.1385  103.3760 O   0  0  0  0  0  0  0  0  0  0  0  0
   28.5931   35.4518  103.9815 N   0  0  0  0  0  0  0  0  0  0  0  0
   27.4049   36.1706  103.7678 C   0  0  0  0  0  0  0  0  0  0  0  0
   28.4340   34.2897  104.7626 C   0  0  0  0  0  0  0  0  0  0  0  0
   26.3843   35.2755  103.3381 C   0  0  0  0  0  0  0  0  0  0  0  0
   27.3734   33.5115  104.3105 C   0  0  0  0  0  0  0  0  0  0  0  0
   25.1432   36.0201  102.8916 O   0  0  0  0  0  0  0  0  0  0  0  0
   26.0919   34.2611  104.2234 C   0  0  0  0  0  0  0  0  0  0  0  0
   24.9195   33.3651  103.9251 C   0  0  0  0  0  0  0  0  0  0  0  0
   25.1773   32.1112  103.6973 O   0  0  0  0  0  0  0  0  0  0  0  0
  1  2  1  0
  2  3  1  0
  3  4  2  0
  1  5  2  0
  1  6  1  0
  6  7  1  0
  6  8  1  0
  7  9  1  0
  8 10  1  0
  9 11  1  0
  9 12  1  0
 10 12  1  0
 12 13  1  0
 13 14  1  0
M  END
>  <generation_time>  (52) 
1.0251893997192383

$$$$

     RDKit          3D

 20 22  0  0  0  0  0  0  0  0999 V2000
   25.8847   36.6161  101.8448 O   0  0  0  0  0  0  0  0  0  0  0  0
   26.3431   35.4587  102.4306 C   0  0  0  0  0  0  0  0  0  0  0  0
   25.4347   34.5888  102.8609 N   0  0  0  0  0  0  0  0  0  0  0  0
   23.9881   34.7116  102.6698 C   0  0  0  0  0  0  0  0  0  0  0  0
   26.0355   33.4224  103.3913 C   0  0  0  0  0  0  0  0  0  0  0  0
   27.6241   35.3346  102.8209 N   0  0  0  0  0  0  0  0  0  0  0  0
   28.1435   34.2959  103.4788 C   0  0  0  0  0  0  0  0  0  0  0  0
   28.3418   36.5831  103.0577 C   0  0  0  0  0  0  0  0  0  0  0  0
   29.7101   36.2263  103.4568 C   0  0  0  0  0  0  0  0  0  0  0  0
   30.2352   34.9328  103.7745 C   0  0  0  0  0  0  0  0  0  0  0  0
   31.5150   34.7040  104.1642 N   0  0  0  0  0  0  0  0  0  0  0  0
   24.9821   32.5891  103.9504 O   0  0  0  0  0  0  0  0  0  0  0  0
   31.9426   34.4177  105.3715 C   0  0  0  0  0  0  0  0  0  0  0  0
   29.3393   34.0118  103.8128 C   0  0  0  0  0  0  0  0  0  0  0  0
   27.1852   33.2560  103.6296 C   0  0  0  0  0  0  0  0  0  0  0  0
   32.1444   33.8288  103.0556 C   0  0  0  0  0  0  0  0  0  0  0  0
   24.2025   32.9541  104.9645 C   0  0  0  0  0  0  0  0  0  0  0  0
   23.3198   34.0067  104.6021 C   0  0  0  0  0  0  0  0  0  0  0  0
   22.7425   34.4722  105.8487 O   0  0  0  0  0  0  0  0  0  0  0  0
   23.6170   35.1835  103.9574 C   0  0  0  0  0  0  0  0  0  0  0  0
  1  2  2  0
  2  3  1  0
  3  4  1  0
  3  5  1  0
  2  6  1  0
  6  7  1  0
  6  8  1  0
  8  9  2  0
  9 10  1  0
 10 11  1  0
  5 12  1  0
 11 13  1  0
  7 14  1  0
 10 14  2  0
  5 15  2  0
  7 15  1  0
 11 16  1  0
 12 17  1  0
 17 18  1  0
 18 19  1  0
  4 20  1  0
 18 20  1  0
M  END
>  <generation_time>  (53) 
1.4325733184814453

$$$$

     RDKit          3D

 14 14  0  0  0  0  0  0  0  0999 V2000
   29.9685   36.1144  103.7755 C   0  0  0  0  0  0  0  0  0  0  0  0
   30.9713   35.2840  103.8871 N   0  0  0  0  0  0  0  0  0  0  0  0
   31.3574   34.4314  102.8612 C   0  0  0  0  0  0  0  0  0  0  0  0
   29.9875   37.1958  103.3655 O   0  0  0  0  0  0  0  0  0  0  0  0
   32.5843   33.6381  103.1502 O   0  0  0  0  0  0  0  0  0  0  0  0
   28.5611   35.5246  103.9367 N   0  0  0  0  0  0  0  0  0  0  0  0
   30.2551   33.2373  102.8082 C   0  0  0  0  0  0  0  0  0  0  0  0
   28.8427   33.6066  102.9325 C   0  0  0  0  0  0  0  0  0  0  0  0
   27.4742   36.3368  103.9952 C   0  0  0  0  0  0  0  0  0  0  0  0
   26.4286   35.8081  103.1233 O   0  0  0  0  0  0  0  0  0  0  0  0
   28.3643   34.1911  104.1756 C   0  0  0  0  0  0  0  0  0  0  0  0
   26.0285   36.2122  101.9211 C   0  0  0  0  0  0  0  0  0  0  0  0
   24.7423   35.6774  101.4773 C   0  0  0  0  0  0  0  0  0  0  0  0
   24.3320   36.1480  100.1474 C   0  0  0  0  0  0  0  0  0  0  0  0
  1  2  1  0
  2  3  1  0
  1  4  2  0
  3  5  1  0
  1  6  1  0
  3  7  1  0
  7  8  1  0
  6  9  1  0
  9 10  1  0
  6 11  1  0
  8 11  1  0
 10 12  1  0
 12 13  1  0
 13 14  1  0
M  END
>  <generation_time>  (54) 
0.99361491203308105

$$$$

     RDKit          3D

 21 23  0  0  0  0  0  0  0  0999 V2000
   32.3538   34.0050  104.8242 C   0  0  0  0  0  0  0  0  0  0  0  0
   32.0516   33.7977  103.5663 N   0  0  0  0  0  0  0  0  0  0  0  0
   31.2779   34.4324  105.6607 C   0  0  0  0  0  0  0  0  0  0  0  0
   30.7769   34.0698  103.2211 C   0  0  0  0  0  0  0  0  0  0  0  0
   29.7306   34.5878  103.9675 C   0  0  0  0  0  0  0  0  0  0  0  0
   29.9547   34.6466  105.2124 C   0  0  0  0  0  0  0  0  0  0  0  0
   28.3271   34.8581  103.3766 C   0  0  0  0  0  0  0  0  0  0  0  0
   27.2189   33.9890  103.6396 C   0  0  0  0  0  0  0  0  0  0  0  0
   25.9172   34.4786  103.2715 C   0  0  0  0  0  0  0  0  0  0  0  0
   28.1762   36.1134  102.8813 N   0  0  0  0  0  0  0  0  0  0  0  0
   25.8396   35.6734  102.6401 N   0  0  0  0  0  0  0  0  0  0  0  0
   24.8378   33.6776  103.7487 C   0  0  0  0  0  0  0  0  0  0  0  0
   26.8592   36.4081  102.4439 C   0  0  0  0  0  0  0  0  0  0  0  0
   24.3211   33.8717  104.9753 N   0  0  0  0  0  0  0  0  0  0  0  0
   23.3687   33.1208  105.5086 C   0  0  0  0  0  0  0  0  0  0  0  0
   24.5815   35.0690  105.7648 C   0  0  0  0  0  0  0  0  0  0  0  0
   24.9272   34.6226  107.0145 C   0  0  0  0  0  0  0  0  0  0  0  0
   24.5038   32.5810  103.1777 O   0  0  0  0  0  0  0  0  0  0  0  0
   23.7867   32.6115  106.8812 C   0  0  0  0  0  0  0  0  0  0  0  0
   25.8109   35.3104  107.7650 O   0  0  0  0  0  0  0  0  0  0  0  0
   24.4029   33.5575  107.6858 N   0  0  0  0  0  0  0  0  0  0  0  0
  1  2  1  0
  1  3  2  0
  2  4  2  0
  4  5  1  0
  3  6  1  0
  5  6  2  0
  5  7  1  0
  7  8  1  0
  8  9  2  0
  7 10  2  0
  9 11  1  0
  9 12  1  0
 10 13  1  0
 11 13  2  0
 12 14  1  0
 14 15  1  0
 14 16  1  0
 16 17  1  0
 12 18  2  0
 15 19  1  0
 17 20  2  0
 17 21  1  0
 19 21  1  0
M  END
>  <generation_time>  (55) 
1.3371756076812744

$$$$

     RDKit          3D

 20 20  0  0  0  0  0  0  0  0999 V2000
   28.0386   33.3549  103.7166 C   0  0  0  0  0  0  0  0  0  0  0  0
   27.0155   34.2366  103.5524 C   0  0  0  0  0  0  0  0  0  0  0  0
   25.5061   33.7256  103.7051 C   0  0  0  0  0  0  0  0  0  0  0  0
   29.2399   34.1746  103.4939 N   0  0  0  0  0  0  0  0  0  0  0  0
   24.5036   34.5467  103.9201 N   0  0  0  0  0  0  0  0  0  0  0  0
   27.1281   35.3776  102.7086 C   0  0  0  0  0  0  0  0  0  0  0  0
   29.2587   35.5127  103.3729 C   0  0  0  0  0  0  0  0  0  0  0  0
   30.5178   33.5656  102.9877 C   0  0  0  0  0  0  0  0  0  0  0  0
   25.3524   32.6523  103.3366 O   0  0  0  0  0  0  0  0  0  0  0  0
   26.0992   35.9318  102.0384 O   0  0  0  0  0  0  0  0  0  0  0  0
   23.4264   34.0885  104.7922 C   0  0  0  0  0  0  0  0  0  0  0  0
   23.4259   34.7011  106.0935 C   0  0  0  0  0  0  0  0  0  0  0  0
   30.4529   36.1677  103.4088 O   0  0  0  0  0  0  0  0  0  0  0  0
   28.1851   36.1972  102.8211 N   0  0  0  0  0  0  0  0  0  0  0  0
   24.5494   34.3558  106.9502 C   0  0  0  0  0  0  0  0  0  0  0  0
   24.6802   34.6894  108.1530 O   0  0  0  0  0  0  0  0  0  0  0  0
   31.1391   33.8029  101.8850 O   0  0  0  0  0  0  0  0  0  0  0  0
   31.7601   33.9499  104.0591 C   0  0  0  0  0  0  0  0  0  0  0  0
   31.3912   34.1656  105.3543 O   0  0  0  0  0  0  0  0  0  0  0  0
   25.1061   33.1618  106.6707 O   0  0  0  0  0  0  0  0  0  0  0  0
  1  2  1  0
  2  3  1  0
  1  4  1  0
  3  5  1  0
  2  6  1  0
  4  7  1  0
  4  8  1  0
  3  9  2  0
  6 10  2  0
  5 11  1  0
 11 12  1  0
  7 13  2  0
  6 14  1  0
  7 14  1  0
 12 15  1  0
 15 16  1  0
  8 17  1  0
  8 18  1  0
 18 19  1  0
 15 20  2  0
M  END
>  <generation_time>  (56) 
1.5450055599212646

$$$$

     RDKit          3D

 14 15  0  0  0  0  0  0  0  0999 V2000
   25.4368   32.5355  104.4313 O   0  0  0  0  0  0  0  0  0  0  0  0
   26.0256   33.6393  104.0856 C   0  0  0  0  0  0  0  0  0  0  0  0
   25.4805   34.7679  103.7873 N   0  0  0  0  0  0  0  0  0  0  0  0
   26.3001   35.8012  103.3248 N   0  0  0  0  0  0  0  0  0  0  0  0
   27.5531   35.6534  103.2878 C   0  0  0  0  0  0  0  0  0  0  0  0
   27.4919   33.7231  103.9084 C   0  0  0  0  0  0  0  0  0  0  0  0
   28.2177   34.6351  103.5124 C   0  0  0  0  0  0  0  0  0  0  0  0
   24.0319   34.9824  103.8475 C   0  0  0  0  0  0  0  0  0  0  0  0
   29.7105   34.6569  103.4055 C   0  0  0  0  0  0  0  0  0  0  0  0
   30.3214   33.4988  103.7301 C   0  0  0  0  0  0  0  0  0  0  0  0
   31.8011   33.6331  103.7419 C   0  0  0  0  0  0  0  0  0  0  0  0
   32.2416   34.5974  103.1077 N   0  0  0  0  0  0  0  0  0  0  0  0
   31.4877   35.6914  102.7838 C   0  0  0  0  0  0  0  0  0  0  0  0
   30.2158   35.6882  102.9932 N   0  0  0  0  0  0  0  0  0  0  0  0
  1  2  2  0
  2  3  1  0
  3  4  1  0
  4  5  2  0
  2  6  1  0
  5  7  1  0
  6  7  2  0
  3  8  1  0
  7  9  1  0
  9 10  1  0
 10 11  2  0
 11 12  1  0
 12 13  2  0
  9 14  2  0
 13 14  1  0
M  END
>  <generation_time>  (57) 
1.0321111679077148

$$$$

     RDKit          3D

 17 18  0  0  0  0  0  0  0  0999 V2000
   32.2272   33.8904  102.1379 O   0  0  0  0  0  0  0  0  0  0  0  0
   31.5861   33.8225  103.3955 C   0  0  0  0  0  0  0  0  0  0  0  0
   30.3444   34.4725  103.3174 C   0  0  0  0  0  0  0  0  0  0  0  0
   29.2122   33.5965  103.8341 C   0  0  0  0  0  0  0  0  0  0  0  0
   30.2638   35.7510  104.0076 C   0  0  0  0  0  0  0  0  0  0  0  0
   31.7106   32.5680  103.8441 O   0  0  0  0  0  0  0  0  0  0  0  0
   29.1236   36.5674  103.5371 N   0  0  0  0  0  0  0  0  0  0  0  0
   27.9852   34.3511  104.1876 N   0  0  0  0  0  0  0  0  0  0  0  0
   27.8285   35.7338  103.7656 C   0  0  0  0  0  0  0  0  0  0  0  0
   26.7428   36.2473  103.9162 O   0  0  0  0  0  0  0  0  0  0  0  0
   26.8665   33.6958  104.8016 C   0  0  0  0  0  0  0  0  0  0  0  0
   26.4213   34.3964  105.9801 C   0  0  0  0  0  0  0  0  0  0  0  0
   25.1851   34.4966  106.2169 N   0  0  0  0  0  0  0  0  0  0  0  0
   25.8164   33.5637  103.6792 C   0  0  0  0  0  0  0  0  0  0  0  0
   24.6571   34.7139  107.4923 O   0  0  0  0  0  0  0  0  0  0  0  0
   24.5342   33.8036  103.9544 C   0  0  0  0  0  0  0  0  0  0  0  0
   24.2805   34.7255  105.1098 C   0  0  0  0  0  0  0  0  0  0  0  0
  1  2  1  0
  2  3  1  0
  3  4  1  0
  3  5  1  0
  2  6  1  0
  5  7  1  0
  4  8  1  0
  7  9  1  0
  8  9  1  0
  9 10  2  0
  8 11  1  0
 11 12  1  0
 12 13  2  0
 11 14  1  0
 13 15  1  0
 14 16  1  0
 13 17  1  0
 16 17  1  0
M  CHG  2  13   1  15  -1
M  END
>  <generation_time>  (58) 
1.2307515144348145

$$$$

     RDKit          3D

 16 16  0  0  0  0  0  0  0  0999 V2000
   32.5608   33.5584  103.3107 O   0  0  0  0  0  0  0  0  0  0  0  0
   31.3950   34.0777  102.8645 C   0  0  0  0  0  0  0  0  0  0  0  0
   30.4906   34.6108  103.9471 C   0  0  0  0  0  0  0  0  0  0  0  0
   29.3116   35.2599  103.4170 N   0  0  0  0  0  0  0  0  0  0  0  0
   31.1208   34.1756  101.7623 O   0  0  0  0  0  0  0  0  0  0  0  0
   30.7590   34.4871  105.2165 O   0  0  0  0  0  0  0  0  0  0  0  0
   28.0617   34.7490  103.6579 C   0  0  0  0  0  0  0  0  0  0  0  0
   27.7148   33.6498  104.3167 N   0  0  0  0  0  0  0  0  0  0  0  0
   26.3151   33.6118  104.2152 C   0  0  0  0  0  0  0  0  0  0  0  0
   25.8514   34.7257  103.5750 C   0  0  0  0  0  0  0  0  0  0  0  0
   26.9903   35.4634  103.1901 N   0  0  0  0  0  0  0  0  0  0  0  0
   26.9316   36.6478  102.3429 O   0  0  0  0  0  0  0  0  0  0  0  0
   24.5063   35.2735  103.4198 C   0  0  0  0  0  0  0  0  0  0  0  0
   23.7174   35.0920  104.3785 C   0  0  0  0  0  0  0  0  0  0  0  0
   23.5077   35.9438  105.2566 N   0  0  0  0  0  0  0  0  0  0  0  0
   23.3532   33.8353  104.7070 O   0  0  0  0  0  0  0  0  0  0  0  0
  1  2  2  0
  2  3  1  0
  3  4  1  0
  2  5  1  0
  3  6  2  0
  4  7  1  0
  7  8  2  0
  8  9  1  0
  9 10  2  0
  7 11  1  0
 10 11  1  0
 11 12  1  0
 10 13  1  0
 13 14  1  0
 14 15  1  0
 14 16  2  0
M  END
>  <generation_time>  (59) 
1.1677486896514893

$$$$

     RDKit          3D

 13 13  0  0  0  0  0  0  0  0999 V2000
   31.6443   34.6897  102.7876 N   0  0  0  0  0  0  0  0  0  0  0  0
   31.8786   33.5433  103.3274 C   0  0  0  0  0  0  0  0  0  0  0  0
   30.4819   35.3165  103.3695 C   0  0  0  0  0  0  0  0  0  0  0  0
   31.6066   33.4489  104.6030 C   0  0  0  0  0  0  0  0  0  0  0  0
   30.9423   34.7551  104.9547 C   0  0  0  0  0  0  0  0  0  0  0  0
   32.4515   32.7370  102.5866 O   0  0  0  0  0  0  0  0  0  0  0  0
   29.1365   34.9005  103.1957 C   0  0  0  0  0  0  0  0  0  0  0  0
   28.1648   35.9700  103.1026 C   0  0  0  0  0  0  0  0  0  0  0  0
   26.8260   35.8001  103.0184 N   0  0  0  0  0  0  0  0  0  0  0  0
   28.5993   37.0808  103.2463 O   0  0  0  0  0  0  0  0  0  0  0  0
   26.0374   36.2311  101.8722 C   0  0  0  0  0  0  0  0  0  0  0  0
   24.7384   35.6888  101.8057 C   0  0  0  0  0  0  0  0  0  0  0  0
   26.3923   37.0131  101.0023 O   0  0  0  0  0  0  0  0  0  0  0  0
  1  2  1  0
  1  3  1  0
  2  4  1  0
  3  5  1  0
  4  5  1  0
  2  6  2  0
  3  7  1  0
  7  8  1  0
  8  9  1  0
  8 10  2  0
  9 11  1  0
 11 12  1  0
 11 13  2  0
M  END
>  <generation_time>  (60) 
0.99073505401611328

$$$$

     RDKit          3D

 16 17  0  0  0  0  0  0  0  0999 V2000
   25.0163   32.2186  103.9468 C   0  0  0  0  0  0  0  0  0  0  0  0
   24.7598   33.4805  104.0265 C   0  0  0  0  0  0  0  0  0  0  0  0
   23.8735   31.3305  104.0453 C   0  0  0  0  0  0  0  0  0  0  0  0
   25.8392   34.4358  103.6067 C   0  0  0  0  0  0  0  0  0  0  0  0
   23.6671   33.9896  104.6950 C   0  0  0  0  0  0  0  0  0  0  0  0
   25.7911   35.4608  102.9821 O   0  0  0  0  0  0  0  0  0  0  0  0
   27.2010   34.0519  103.7082 N   0  0  0  0  0  0  0  0  0  0  0  0
   22.6132   31.9401  104.7317 C   0  0  0  0  0  0  0  0  0  0  0  0
   28.2473   34.9346  103.5825 C   0  0  0  0  0  0  0  0  0  0  0  0
   22.6293   33.1810  105.1135 C   0  0  0  0  0  0  0  0  0  0  0  0
   29.6247   34.3070  103.7993 C   0  0  0  0  0  0  0  0  0  0  0  0
   30.3906   34.5682  104.8615 C   0  0  0  0  0  0  0  0  0  0  0  0
   30.2682   33.8071  102.5756 C   0  0  0  0  0  0  0  0  0  0  0  0
   31.6909   34.0806  104.6506 C   0  0  0  0  0  0  0  0  0  0  0  0
   31.7510   33.5219  103.0155 S   0  0  0  0  0  0  0  0  0  0  0  0
   28.0928   36.1691  104.0924 O   0  0  0  0  0  0  0  0  0  0  0  0
  1  2  1  0
  1  3  2  0
  2  4  1  0
  2  5  2  0
  4  6  2  0
  4  7  1  0
  3  8  1  0
  7  9  1  0
  5 10  1  0
  8 10  2  0
  9 11  1  0
 11 12  1  0
 11 13  2  0
 12 14  2  0
 13 15  1  0
 14 15  1  0
  9 16  2  0
M  END
>  <generation_time>  (61) 
1.2467124462127686

$$$$

     RDKit          3D

 20 20  0  0  0  0  0  0  0  0999 V2000
   29.3809   36.7562  103.4349 O   0  0  0  0  0  0  0  0  0  0  0  0
   29.7732   35.4899  103.5533 C   0  0  0  0  0  0  0  0  0  0  0  0
   28.7756   34.5045  103.7128 N   0  0  0  0  0  0  0  0  0  0  0  0
   27.3478   34.8868  103.5807 C   0  0  0  0  0  0  0  0  0  0  0  0
   31.1015   35.0850  103.5230 N   0  0  0  0  0  0  0  0  0  0  0  0
   26.7355   35.4261  102.8583 N   0  0  0  0  0  0  0  0  0  0  0  0
   25.4008   35.2932  103.0080 N   0  0  0  0  0  0  0  0  0  0  0  0
   26.4782   33.9710  104.3877 N   0  0  0  0  0  0  0  0  0  0  0  0
   24.3915   35.8643  102.0957 C   0  0  0  0  0  0  0  0  0  0  0  0
   31.7373   34.4148  104.5802 C   0  0  0  0  0  0  0  0  0  0  0  0
   25.3346   34.4980  104.1860 C   0  0  0  0  0  0  0  0  0  0  0  0
   25.0661   36.7678  101.0525 C   0  0  0  0  0  0  0  0  0  0  0  0
   23.9644   33.9386  104.6987 C   0  0  0  0  0  0  0  0  0  0  0  0
   23.7951   34.5492  106.0844 C   0  0  0  0  0  0  0  0  0  0  0  0
   24.7646   34.1146  107.0540 C   0  0  0  0  0  0  0  0  0  0  0  0
   22.5361   34.8327  106.5259 C   0  0  0  0  0  0  0  0  0  0  0  0
   31.3959   34.4209  105.7382 O   0  0  0  0  0  0  0  0  0  0  0  0
   32.7231   33.5678  104.0922 N   0  0  0  0  0  0  0  0  0  0  0  0
   24.9171   34.7406  108.2241 O   0  0  0  0  0  0  0  0  0  0  0  0
   25.0718   32.8537  107.1170 O   0  0  0  0  0  0  0  0  0  0  0  0
  1  2  2  0
  2  3  1  0
  3  4  1  0
  2  5  1  0
  4  6  2  0
  6  7  1  0
  4  8  1  0
  7  9  1  0
  5 10  1  0
  7 11  1  0
  8 11  2  0
  9 12  1  0
 11 13  1  0
 13 14  1  0
 14 15  1  0
 14 16  1  0
 10 17  2  0
 10 18  1  0
 15 19  1  0
 15 20  2  0
M  END
>  <generation_time>  (62) 
1.3957939147949219

$$$$

     RDKit          3D

 21 22  0  0  0  0  0  0  0  0999 V2000
   25.4205   34.4399  108.0516 O   0  0  0  0  0  0  0  0  0  0  0  0
   25.5241   34.2743  106.8055 C   0  0  0  0  0  0  0  0  0  0  0  0
   26.1778   34.9114  105.8509 C   0  0  0  0  0  0  0  0  0  0  0  0
   25.4942   35.3173  104.7451 N   0  0  0  0  0  0  0  0  0  0  0  0
   25.2222   32.9501  106.4282 O   0  0  0  0  0  0  0  0  0  0  0  0
   25.2965   34.5384  103.5605 C   0  0  0  0  0  0  0  0  0  0  0  0
   25.3247   33.2844  103.4746 O   0  0  0  0  0  0  0  0  0  0  0  0
   24.8415   35.2719  102.3324 C   0  0  0  0  0  0  0  0  0  0  0  0
   25.9054   36.1679  101.7049 N   0  0  0  0  0  0  0  0  0  0  0  0
   25.4889   36.7674  100.5762 C   0  0  0  0  0  0  0  0  0  0  0  0
   27.1548   36.2060  102.2339 C   0  0  0  0  0  0  0  0  0  0  0  0
   27.7094   37.2142  102.1501 O   0  0  0  0  0  0  0  0  0  0  0  0
   27.7310   35.0599  102.9655 N   0  0  0  0  0  0  0  0  0  0  0  0
   29.0420   35.3144  103.5022 C   0  0  0  0  0  0  0  0  0  0  0  0
   24.4449   35.7930  100.0347 C   0  0  0  0  0  0  0  0  0  0  0  0
   23.9577   35.0870  101.2796 C   0  0  0  0  0  0  0  0  0  0  0  0
   29.7885   34.0478  103.6930 C   0  0  0  0  0  0  0  0  0  0  0  0
   30.1717   33.6037  102.3808 C   0  0  0  0  0  0  0  0  0  0  0  0
   31.0575   34.3726  104.4746 C   0  0  0  0  0  0  0  0  0  0  0  0
   31.4708   34.0909  102.0147 C   0  0  0  0  0  0  0  0  0  0  0  0
   32.2135   34.1922  103.1532 N   0  0  0  0  0  0  0  0  0  0  0  0
  1  2  2  0
  2  3  1  0
  3  4  1  0
  2  5  1  0
  4  6  1  0
  6  7  2  0
  6  8  1  0
  8  9  1  0
  9 10  1  0
  9 11  1  0
 11 12  2  0
 11 13  1  0
 13 14  1  0
 10 15  1  0
  8 16  1  0
 15 16  1  0
 14 17  1  0
 17 18  1  0
 17 19  1  0
 18 20  1  0
 19 21  1  0
 20 21  1  0
M  END
>  <generation_time>  (63) 
1.3395016193389893

$$$$

     RDKit          3D

 21 22  0  0  0  0  0  0  0  0999 V2000
   22.6195   32.8811  107.2613 O   0  0  0  0  0  0  0  0  0  0  0  0
   23.2930   33.6424  106.6792 C   0  0  0  0  0  0  0  0  0  0  0  0
   23.8825   33.4397  105.4892 N   0  0  0  0  0  0  0  0  0  0  0  0
   24.0149   34.7329  107.5438 C   0  0  0  0  0  0  0  0  0  0  0  0
   23.5804   32.3773  104.6019 C   0  0  0  0  0  0  0  0  0  0  0  0
   24.7981   34.4651  104.8848 C   0  0  0  0  0  0  0  0  0  0  0  0
   22.9780   31.3539  104.8463 O   0  0  0  0  0  0  0  0  0  0  0  0
   25.2721   34.3940  103.6275 C   0  0  0  0  0  0  0  0  0  0  0  0
   24.3223   32.2567  103.2889 C   0  0  0  0  0  0  0  0  0  0  0  0
   25.1401   33.2476  102.8648 C   0  0  0  0  0  0  0  0  0  0  0  0
   26.1157   35.4586  103.1062 N   0  0  0  0  0  0  0  0  0  0  0  0
   27.4008   35.6505  103.4727 C   0  0  0  0  0  0  0  0  0  0  0  0
   28.1351   36.6027  103.0911 O   0  0  0  0  0  0  0  0  0  0  0  0
   27.9440   34.5679  104.4372 C   0  0  0  0  0  0  0  0  0  0  0  0
   29.3813   34.1399  104.0406 C   0  0  0  0  0  0  0  0  0  0  0  0
   25.3559   36.4238  102.2828 C   0  0  0  0  0  0  0  0  0  0  0  0
   29.6069   33.6485  102.8103 C   0  0  0  0  0  0  0  0  0  0  0  0
   30.5238   34.5801  104.7699 C   0  0  0  0  0  0  0  0  0  0  0  0
   30.9386   33.3704  102.5654 C   0  0  0  0  0  0  0  0  0  0  0  0
   31.9684   33.6514  103.2641 C   0  0  0  0  0  0  0  0  0  0  0  0
   31.7640   34.2512  104.4634 C   0  0  0  0  0  0  0  0  0  0  0  0
  1  2  2  0
  2  3  1  0
  2  4  1  0
  3  5  1  0
  3  6  1  0
  5  7  2  0
  6  8  2  0
  5  9  1  0
  8 10  1  0
  9 10  2  0
  8 11  1  0
 11 12  1  0
 12 13  2  0
 12 14  1  0
 14 15  1  0
 11 16  1  0
 15 17  2  0
 15 18  1  0
 17 19  1  0
 19 20  2  0
 18 21  2  0
 20 21  1  0
M  END
>  <generation_time>  (64) 
1.3112680912017822

$$$$

     RDKit          3D

 21 23  0  0  0  0  0  0  0  0999 V2000
   28.5077   36.3853  103.3033 N   0  0  0  0  0  0  0  0  0  0  0  0
   29.6280   35.7838  103.6150 C   0  0  0  0  0  0  0  0  0  0  0  0
   27.3708   35.6672  103.5072 C   0  0  0  0  0  0  0  0  0  0  0  0
   27.8619   34.2999  104.0130 N   0  0  0  0  0  0  0  0  0  0  0  0
   26.9586   33.2906  104.2892 C   0  0  0  0  0  0  0  0  0  0  0  0
   26.0489   35.8074  103.2346 N   0  0  0  0  0  0  0  0  0  0  0  0
   29.2105   34.4462  104.0670 C   0  0  0  0  0  0  0  0  0  0  0  0
   30.9183   36.1359  103.5291 C   0  0  0  0  0  0  0  0  0  0  0  0
   30.1761   33.5413  104.5090 C   0  0  0  0  0  0  0  0  0  0  0  0
   25.5475   33.5221  103.9315 C   0  0  0  0  0  0  0  0  0  0  0  0
   31.5280   33.9061  104.4052 C   0  0  0  0  0  0  0  0  0  0  0  0
   31.9659   35.1123  103.8918 C   0  0  0  0  0  0  0  0  0  0  0  0
   25.1501   34.7695  103.4034 C   0  0  0  0  0  0  0  0  0  0  0  0
   24.6720   32.3966  104.2455 C   0  0  0  0  0  0  0  0  0  0  0  0
   24.7076   31.4048  103.9484 O   0  0  0  0  0  0  0  0  0  0  0  0
   23.7011   32.7203  105.2691 N   0  0  0  0  0  0  0  0  0  0  0  0
   23.5637   33.9699  106.0283 C   0  0  0  0  0  0  0  0  0  0  0  0
   24.4182   34.0178  107.2381 C   0  0  0  0  0  0  0  0  0  0  0  0
   22.9715   31.6380  105.8457 C   0  0  0  0  0  0  0  0  0  0  0  0
   25.5830   34.6029  107.3476 O   0  0  0  0  0  0  0  0  0  0  0  0
   23.9933   33.3987  108.2660 O   0  0  0  0  0  0  0  0  0  0  0  0
  1  2  1  0
  1  3  2  0
  3  4  1  0
  4  5  1  0
  3  6  1  0
  2  7  2  0
  4  7  1  0
  2  8  1  0
  7  9  1  0
  5 10  2  0
  9 11  2  0
  8 12  2  0
 11 12  1  0
  6 13  1  0
 10 13  1  0
 10 14  1  0
 14 15  2  0
 14 16  1  0
 16 17  1  0
 17 18  1  0
 16 19  1  0
 18 20  2  0
 18 21  1  0
M  END
>  <generation_time>  (65) 
1.4806160926818848

$$$$

     RDKit          3D

 16 16  0  0  0  0  0  0  0  0999 V2000
   32.5608   33.5584  103.3107 O   0  0  0  0  0  0  0  0  0  0  0  0
   31.3518   34.1114  103.6116 C   0  0  0  0  0  0  0  0  0  0  0  0
   31.2609   35.2150  104.0243 N   0  0  0  0  0  0  0  0  0  0  0  0
   30.1840   33.2529  103.3678 C   0  0  0  0  0  0  0  0  0  0  0  0
   29.0829   34.2692  103.5231 C   0  0  0  0  0  0  0  0  0  0  0  0
   29.7398   35.4610  103.9174 C   0  0  0  0  0  0  0  0  0  0  0  0
   29.4234   36.4092  103.9396 O   0  0  0  0  0  0  0  0  0  0  0  0
   28.0516   33.9333  104.3245 N   0  0  0  0  0  0  0  0  0  0  0  0
   26.7336   34.1816  104.0023 C   0  0  0  0  0  0  0  0  0  0  0  0
   25.7125   33.8889  104.8857 N   0  0  0  0  0  0  0  0  0  0  0  0
   26.4831   34.5598  102.7684 O   0  0  0  0  0  0  0  0  0  0  0  0
   24.3479   34.0390  104.6002 C   0  0  0  0  0  0  0  0  0  0  0  0
   23.5973   32.9004  105.1558 C   0  0  0  0  0  0  0  0  0  0  0  0
   23.9151   35.4022  105.3251 C   0  0  0  0  0  0  0  0  0  0  0  0
   23.5736   36.3205  104.6258 O   0  0  0  0  0  0  0  0  0  0  0  0
   24.0904   35.4764  106.5577 O   0  0  0  0  0  0  0  0  0  0  0  0
  1  2  2  0
  2  3  1  0
  2  4  1  0
  4  5  1  0
  3  6  1  0
  5  6  1  0
  6  7  2  0
  5  8  1  0
  8  9  1  0
  9 10  1  0
  9 11  2  0
 10 12  1  0
 12 13  1  0
 12 14  1  0
 14 15  2  0
 14 16  1  0
M  END
>  <generation_time>  (66) 
1.0487380027770996

$$$$

     RDKit          3D

 21 21  0  0  0  0  0  0  0  0999 V2000
   29.3156   36.5828  103.5551 O   0  0  0  0  0  0  0  0  0  0  0  0
   29.8752   35.3685  103.5915 C   0  0  0  0  0  0  0  0  0  0  0  0
   29.2842   34.2946  103.3442 N   0  0  0  0  0  0  0  0  0  0  0  0
   31.2971   35.3703  103.8656 N   0  0  0  0  0  0  0  0  0  0  0  0
   31.8780   34.1954  104.1673 C   0  0  0  0  0  0  0  0  0  0  0  0
   31.4132   33.0392  103.4699 C   0  0  0  0  0  0  0  0  0  0  0  0
   29.8270   33.0328  103.3581 C   0  0  0  0  0  0  0  0  0  0  0  0
   27.8067   34.1492  103.4228 C   0  0  0  0  0  0  0  0  0  0  0  0
   27.0116   35.1408  102.7154 C   0  0  0  0  0  0  0  0  0  0  0  0
   27.1598   33.3302  104.2159 O   0  0  0  0  0  0  0  0  0  0  0  0
   27.2923   35.8374  101.7309 O   0  0  0  0  0  0  0  0  0  0  0  0
   25.6380   35.4262  103.2096 N   0  0  0  0  0  0  0  0  0  0  0  0
   31.9538   33.3867  102.0435 O   0  0  0  0  0  0  0  0  0  0  0  0
   24.6207   35.8814  102.2781 C   0  0  0  0  0  0  0  0  0  0  0  0
   25.3234   35.7110  104.5365 C   0  0  0  0  0  0  0  0  0  0  0  0
   24.5063   34.5405  105.1376 C   0  0  0  0  0  0  0  0  0  0  0  0
   24.9261   36.7665  101.1829 C   0  0  0  0  0  0  0  0  0  0  0  0
   24.6350   34.4281  106.3694 N   0  0  0  0  0  0  0  0  0  0  0  0
   23.9852   33.8144  104.4816 O   0  0  0  0  0  0  0  0  0  0  0  0
   24.1498   33.4491  107.2384 C   0  0  0  0  0  0  0  0  0  0  0  0
   24.8588   33.7993  108.6186 O   0  0  0  0  0  0  0  0  0  0  0  0
  1  2  2  0
  2  3  1  0
  2  4  1  0
  4  5  1  0
  5  6  1  0
  3  7  1  0
  6  7  1  0
  3  8  1  0
  8  9  1  0
  8 10  2  0
  9 11  2  0
  9 12  1  0
  6 13  1  0
 12 14  1  0
 12 15  1  0
 15 16  1  0
 14 17  1  0
 16 18  1  0
 16 19  2  0
 18 20  1  0
 20 21  1  0
M  END
>  <generation_time>  (67) 
1.2994027137756348

$$$$

     RDKit          3D

 15 16  0  0  0  0  0  0  0  0999 V2000
   24.7479   36.6589  102.1023 O   0  0  0  0  0  0  0  0  0  0  0  0
   25.4404   35.6352  102.2061 C   0  0  0  0  0  0  0  0  0  0  0  0
   26.7896   35.6391  102.1002 N   0  0  0  0  0  0  0  0  0  0  0  0
   27.5919   34.7869  102.8202 C   0  0  0  0  0  0  0  0  0  0  0  0
   29.0182   35.0642  102.9291 N   0  0  0  0  0  0  0  0  0  0  0  0
   24.9166   34.6229  103.0674 N   0  0  0  0  0  0  0  0  0  0  0  0
   29.5899   36.2358  102.8478 C   0  0  0  0  0  0  0  0  0  0  0  0
   27.0908   33.8466  103.6019 N   0  0  0  0  0  0  0  0  0  0  0  0
   29.7616   33.9404  103.6124 C   0  0  0  0  0  0  0  0  0  0  0  0
   30.9746   34.5521  104.0120 C   0  0  0  0  0  0  0  0  0  0  0  0
   25.6775   33.7712  103.7322 C   0  0  0  0  0  0  0  0  0  0  0  0
   30.9446   35.9325  103.4773 C   0  0  0  0  0  0  0  0  0  0  0  0
   32.1287   33.7842  103.3604 C   0  0  0  0  0  0  0  0  0  0  0  0
   25.1479   32.7815  104.3306 O   0  0  0  0  0  0  0  0  0  0  0  0
   31.3574   34.3755  105.3174 C   0  0  0  0  0  0  0  0  0  0  0  0
  1  2  2  0
  2  3  1  0
  3  4  1  0
  4  5  1  0
  2  6  1  0
  5  7  1  0
  4  8  2  0
  5  9  1  0
  9 10  1  0
  6 11  1  0
  8 11  1  0
  7 12  1  0
 10 12  1  0
 10 13  1  0
 11 14  2  0
 10 15  1  0
M  END
>  <generation_time>  (68) 
1.1284198760986328

$$$$

     RDKit          3D

 22 23  0  0  0  0  0  0  0  0999 V2000
   24.0919   33.7855  107.6116 C   0  0  0  0  0  0  0  0  0  0  0  0
   24.4733   34.0211  106.4452 C   0  0  0  0  0  0  0  0  0  0  0  0
   23.9126   33.5414  105.2777 C   0  0  0  0  0  0  0  0  0  0  0  0
   25.8786   34.5520  106.2245 C   0  0  0  0  0  0  0  0  0  0  0  0
   24.4755   33.7383  103.9851 C   0  0  0  0  0  0  0  0  0  0  0  0
   24.8155   34.1963  108.7300 O   0  0  0  0  0  0  0  0  0  0  0  0
   26.3487   34.5728  105.0630 C   0  0  0  0  0  0  0  0  0  0  0  0
   25.6973   34.2539  103.8508 C   0  0  0  0  0  0  0  0  0  0  0  0
   26.4063   34.4438  102.5533 C   0  0  0  0  0  0  0  0  0  0  0  0
   25.7042   35.4981  101.9772 C   0  0  0  0  0  0  0  0  0  0  0  0
   22.9448   33.3786  107.9542 O   0  0  0  0  0  0  0  0  0  0  0  0
   24.4107   35.6622  101.6655 O   0  0  0  0  0  0  0  0  0  0  0  0
   26.3948   36.6868  101.7534 O   0  0  0  0  0  0  0  0  0  0  0  0
   27.7744   34.5165  102.9948 N   0  0  0  0  0  0  0  0  0  0  0  0
   27.7420   34.8843  104.4813 C   0  0  0  0  0  0  0  0  0  0  0  0
   28.8798   34.5536  105.1966 C   0  0  0  0  0  0  0  0  0  0  0  0
   30.1248   34.4585  104.4387 C   0  0  0  0  0  0  0  0  0  0  0  0
   30.1859   34.9418  103.2075 O   0  0  0  0  0  0  0  0  0  0  0  0
   31.1942   33.7435  104.8222 O   0  0  0  0  0  0  0  0  0  0  0  0
   32.2326   33.4064  103.8424 C   0  0  0  0  0  0  0  0  0  0  0  0
   31.7151   33.4571  102.4615 C   0  0  0  0  0  0  0  0  0  0  0  0
   32.5230   34.4180  101.7113 O   0  0  0  0  0  0  0  0  0  0  0  0
  1  2  1  0
  2  3  2  0
  2  4  1  0
  3  5  1  0
  1  6  1  0
  4  7  2  0
  5  8  2  0
  7  8  1  0
  8  9  1  0
  9 10  1  0
  1 11  2  0
 10 12  2  0
 10 13  1  0
  9 14  1  0
  7 15  1  0
 14 15  1  0
 15 16  1  0
 16 17  1  0
 17 18  2  0
 17 19  1  0
 19 20  1  0
 20 21  1  0
 21 22  1  0
M  END
>  <generation_time>  (69) 
1.3991775512695312

$$$$

     RDKit          3D

 18 18  0  0  0  0  0  0  0  0999 V2000
   26.0480   36.3130  100.7775 C   0  0  0  0  0  0  0  0  0  0  0  0
   25.8425   35.6017  101.9743 C   0  0  0  0  0  0  0  0  0  0  0  0
   26.8193   35.2250  102.9252 C   0  0  0  0  0  0  0  0  0  0  0  0
   26.6686   34.3444  103.9037 N   0  0  0  0  0  0  0  0  0  0  0  0
   27.6422   36.3755  103.1387 O   0  0  0  0  0  0  0  0  0  0  0  0
   27.7382   34.1125  104.8218 C   0  0  0  0  0  0  0  0  0  0  0  0
   25.6858   33.3946  103.7851 C   0  0  0  0  0  0  0  0  0  0  0  0
   25.6057   32.3971  104.5960 O   0  0  0  0  0  0  0  0  0  0  0  0
   24.6799   33.6914  102.7893 C   0  0  0  0  0  0  0  0  0  0  0  0
   24.2376   31.9405  104.7221 C   0  0  0  0  0  0  0  0  0  0  0  0
   27.5999   34.7090  105.9526 C   0  0  0  0  0  0  0  0  0  0  0  0
   29.0980   34.7314  104.2585 C   0  0  0  0  0  0  0  0  0  0  0  0
   30.2308   33.7494  104.3739 C   0  0  0  0  0  0  0  0  0  0  0  0
   31.3512   34.2996  105.0683 C   0  0  0  0  0  0  0  0  0  0  0  0
   24.8250   34.6850  101.8456 C   0  0  0  0  0  0  0  0  0  0  0  0
   30.6435   33.6013  102.8435 C   0  0  0  0  0  0  0  0  0  0  0  0
   26.6696   33.8700  106.7904 O   0  0  0  0  0  0  0  0  0  0  0  0
   32.0450   34.0167  102.6681 O   0  0  0  0  0  0  0  0  0  0  0  0
  1  2  1  0
  2  3  1  0
  3  4  1  0
  3  5  2  0
  4  6  1  0
  4  7  1  0
  7  8  1  0
  7  9  2  0
  8 10  1  0
  6 11  1  0
  6 12  1  0
 12 13  1  0
 13 14  1  0
  2 15  2  0
  9 15  1  0
 13 16  1  0
 11 17  1  0
 16 18  1  0
M  END
>  <generation_time>  (70) 
1.3478109836578369

$$$$

     RDKit          3D

 13 14  0  0  0  0  0  0  0  0999 V2000
   25.1150   33.7082  103.4041 C   0  0  0  0  0  0  0  0  0  0  0  0
   25.7292   34.7715  103.2438 C   0  0  0  0  0  0  0  0  0  0  0  0
   25.1861   35.8363  102.4716 O   0  0  0  0  0  0  0  0  0  0  0  0
   26.3435   35.2315  104.5413 C   0  0  0  0  0  0  0  0  0  0  0  0
   24.9210   35.7165  101.1195 C   0  0  0  0  0  0  0  0  0  0  0  0
   26.9377   34.1165  105.1417 O   0  0  0  0  0  0  0  0  0  0  0  0
   25.3096   35.6801  105.3912 O   0  0  0  0  0  0  0  0  0  0  0  0
   25.8822   32.5950  103.9351 C   0  0  0  0  0  0  0  0  0  0  0  0
   26.0140   33.0144  105.5010 C   0  0  0  0  0  0  0  0  0  0  0  0
   24.6674   33.3918  106.1718 C   0  0  0  0  0  0  0  0  0  0  0  0
   24.7671   34.8474  106.4433 C   0  0  0  0  0  0  0  0  0  0  0  0
   24.2343   32.6980  107.0552 O   0  0  0  0  0  0  0  0  0  0  0  0
   23.6693   35.4366  106.9928 O   0  0  0  0  0  0  0  0  0  0  0  0
  1  2  1  0
  2  3  1  0
  2  4  1  0
  3  5  1  0
  4  6  1  0
  4  7  1  0
  1  8  1  0
  6  9  1  0
  8  9  1  0
  9 10  1  0
  7 11  1  0
 10 11  1  0
 10 12  1  0
 11 13  1  0
M  END
>  <generation_time>  (71) 
0.92549538612365723

$$$$

     RDKit          3D

 16 16  0  0  0  0  0  0  0  0999 V2000
   31.0843   35.3384  103.3879 N   0  0  0  0  0  0  0  0  0  0  0  0
   29.8110   35.6537  103.7140 C   0  0  0  0  0  0  0  0  0  0  0  0
   31.5949   34.1406  103.8588 C   0  0  0  0  0  0  0  0  0  0  0  0
   32.8189   33.6385  103.4968 N   0  0  0  0  0  0  0  0  0  0  0  0
   30.9548   33.4807  105.0160 C   0  0  0  0  0  0  0  0  0  0  0  0
   29.6785   33.9571  105.4322 C   0  0  0  0  0  0  0  0  0  0  0  0
   29.0785   35.0332  104.6868 N   0  0  0  0  0  0  0  0  0  0  0  0
   27.6873   35.1546  104.5300 C   0  0  0  0  0  0  0  0  0  0  0  0
   29.3492   36.6412  103.1518 O   0  0  0  0  0  0  0  0  0  0  0  0
   26.9598   34.0018  105.2458 O   0  0  0  0  0  0  0  0  0  0  0  0
   25.8439   34.4701  106.0565 C   0  0  0  0  0  0  0  0  0  0  0  0
   26.0402   34.0962  107.4107 C   0  0  0  0  0  0  0  0  0  0  0  0
   25.3812   35.7732  105.9003 O   0  0  0  0  0  0  0  0  0  0  0  0
   27.1694   35.1777  103.1100 C   0  0  0  0  0  0  0  0  0  0  0  0
   27.0284   33.3715  107.6931 O   0  0  0  0  0  0  0  0  0  0  0  0
   26.4317   36.0769  102.5621 O   0  0  0  0  0  0  0  0  0  0  0  0
  1  2  1  0
  1  3  2  0
  3  4  1  0
  3  5  1  0
  5  6  2  0
  2  7  1  0
  6  7  1  0
  7  8  1  0
  2  9  2  0
  8 10  1  0
 10 11  1  0
 11 12  1  0
 11 13  1  0
  8 14  1  0
 12 15  1  0
 14 16  1  0
M  END
>  <generation_time>  (72) 
1.0630879402160645

$$$$

     RDKit          3D

 20 21  0  0  0  0  0  0  0  0999 V2000
   26.4538   33.7648  103.6653 C   0  0  0  0  0  0  0  0  0  0  0  0
   25.2565   34.3252  103.4457 C   0  0  0  0  0  0  0  0  0  0  0  0
   27.6158   34.7219  103.5157 N   0  0  0  0  0  0  0  0  0  0  0  0
   28.9656   34.5978  103.7878 C   0  0  0  0  0  0  0  0  0  0  0  0
   27.2458   36.1006  103.4239 C   0  0  0  0  0  0  0  0  0  0  0  0
   28.1310   36.8511  103.0767 O   0  0  0  0  0  0  0  0  0  0  0  0
   29.7228   34.8870  104.8599 C   0  0  0  0  0  0  0  0  0  0  0  0
   25.7732   35.9652  103.0446 C   0  0  0  0  0  0  0  0  0  0  0  0
   29.6799   33.8955  102.7888 C   0  0  0  0  0  0  0  0  0  0  0  0
   24.3800   34.5161  104.5732 C   0  0  0  0  0  0  0  0  0  0  0  0
   30.9916   33.5817  102.8515 C   0  0  0  0  0  0  0  0  0  0  0  0
   24.7111   33.6269  105.7258 N   0  0  0  0  0  0  0  0  0  0  0  0
   31.6985   32.9985  101.8842 O   0  0  0  0  0  0  0  0  0  0  0  0
   31.7407   33.9682  104.0508 N   0  0  0  0  0  0  0  0  0  0  0  0
   31.0341   34.6049  105.0813 C   0  0  0  0  0  0  0  0  0  0  0  0
   23.9332   32.6605  106.0220 C   0  0  0  0  0  0  0  0  0  0  0  0
   25.0166   34.5902  106.9585 C   0  0  0  0  0  0  0  0  0  0  0  0
   25.4197   36.2496  101.6410 C   0  0  0  0  0  0  0  0  0  0  0  0
   25.9013   33.9033  107.8975 O   0  0  0  0  0  0  0  0  0  0  0  0
   24.7570   35.6562  107.0573 O   0  0  0  0  0  0  0  0  0  0  0  0
  1  2  1  0
  1  3  1  0
  3  4  1  0
  3  5  1  0
  5  6  2  0
  4  7  1  0
  2  8  1  0
  5  8  1  0
  4  9  2  0
  2 10  1  0
  9 11  1  0
 10 12  1  0
 11 13  2  0
 11 14  1  0
  7 15  1  0
 14 15  1  0
 12 16  1  0
 12 17  1  0
  8 18  1  0
 17 19  1  0
 17 20  2  0
M  END
>  <generation_time>  (73) 
1.4491324424743652

$$$$

     RDKit          3D

 26 27  0  0  0  0  0  0  0  0999 V2000
   31.3181   33.2338  102.9631 C   0  0  0  0  0  0  0  0  0  0  0  0
   30.8241   34.1962  103.6974 C   0  0  0  0  0  0  0  0  0  0  0  0
   32.7077   33.2496  102.6962 O   0  0  0  0  0  0  0  0  0  0  0  0
   31.6984   35.0425  104.3188 O   0  0  0  0  0  0  0  0  0  0  0  0
   29.7902   35.1343  103.1362 C   0  0  0  0  0  0  0  0  0  0  0  0
   28.4118   34.9430  103.6424 N   0  0  0  0  0  0  0  0  0  0  0  0
   28.0307   33.9011  104.3326 C   0  0  0  0  0  0  0  0  0  0  0  0
   29.8994   36.5434  103.6947 O   0  0  0  0  0  0  0  0  0  0  0  0
   26.6618   33.7890  104.4997 N   0  0  0  0  0  0  0  0  0  0  0  0
   25.8231   34.7909  104.1457 C   0  0  0  0  0  0  0  0  0  0  0  0
   27.4004   36.0089  103.2950 C   0  0  0  0  0  0  0  0  0  0  0  0
   26.1588   35.8135  103.4573 N   0  0  0  0  0  0  0  0  0  0  0  0
   27.9326   36.9545  102.6098 O   0  0  0  0  0  0  0  0  0  0  0  0
   24.2915   34.5973  104.4689 C   0  0  0  0  0  0  0  0  0  0  0  0
   23.9126   33.1794  104.8268 C   0  0  0  0  0  0  0  0  0  0  0  0
   22.8514   33.0834  105.6341 C   0  0  0  0  0  0  0  0  0  0  0  0
   21.9461   32.1999  105.2958 C   0  0  0  0  0  0  0  0  0  0  0  0
   22.7508   34.0749  106.7892 C   0  0  0  0  0  0  0  0  0  0  0  0
   23.7457   34.9907  107.2147 N   0  0  0  0  0  0  0  0  0  0  0  0
   25.0249   34.2896  107.6356 C   0  0  0  0  0  0  0  0  0  0  0  0
   25.8094   34.7987  107.9800 O   0  0  0  0  0  0  0  0  0  0  0  0
   21.4943   34.0311  107.4185 C   0  0  0  0  0  0  0  0  0  0  0  0
   22.1114   31.2012  104.2528 C   0  0  0  0  0  0  0  0  0  0  0  0
   20.5858   32.3983  106.1253 C   0  0  0  0  0  0  0  0  0  0  0  0
   25.1457   32.8499  107.3725 O   0  0  0  0  0  0  0  0  0  0  0  0
   20.5099   33.1867  107.0100 C   0  0  0  0  0  0  0  0  0  0  0  0
  1  2  1  0
  1  3  1  0
  2  4  1  0
  2  5  1  0
  5  6  1  0
  6  7  1  0
  5  8  1  0
  7  9  2  0
  9 10  1  0
  6 11  1  0
 10 12  2  0
 11 12  1  0
 11 13  2  0
 10 14  1  0
 14 15  1  0
 15 16  1  0
 16 17  2  0
 16 18  1  0
 18 19  1  0
 19 20  1  0
 20 21  2  0
 18 22  2  0
 17 23  1  0
 17 24  1  0
 20 25  1  0
 22 26  1  0
 24 26  2  0
M  END
>  <generation_time>  (74) 
1.586400032043457

$$$$

     RDKit          3D

 15 16  0  0  0  0  0  0  0  0999 V2000
   24.9064   36.7705  101.3236 O   0  0  0  0  0  0  0  0  0  0  0  0
   25.8390   35.9349  101.6767 C   0  0  0  0  0  0  0  0  0  0  0  0
   26.9979   35.9914  101.3371 O   0  0  0  0  0  0  0  0  0  0  0  0
   25.3614   34.9867  102.7823 C   0  0  0  0  0  0  0  0  0  0  0  0
   26.4119   34.3895  103.5598 C   0  0  0  0  0  0  0  0  0  0  0  0
   27.5909   34.9594  103.7106 N   0  0  0  0  0  0  0  0  0  0  0  0
   26.0722   33.2722  104.1543 O   0  0  0  0  0  0  0  0  0  0  0  0
   28.6770   34.3490  104.4961 C   0  0  0  0  0  0  0  0  0  0  0  0
   30.0476   34.8813  104.2274 C   0  0  0  0  0  0  0  0  0  0  0  0
   31.1367   34.2075  104.4854 C   0  0  0  0  0  0  0  0  0  0  0  0
   29.9611   35.8143  103.1464 C   0  0  0  0  0  0  0  0  0  0  0  0
   28.7860   36.3785  102.8280 N   0  0  0  0  0  0  0  0  0  0  0  0
   32.1556   34.1659  103.5802 O   0  0  0  0  0  0  0  0  0  0  0  0
   27.8275   35.9422  102.9437 C   0  0  0  0  0  0  0  0  0  0  0  0
   31.4085   33.8930  105.6501 O   0  0  0  0  0  0  0  0  0  0  0  0
  1  2  2  0
  2  3  1  0
  2  4  1  0
  4  5  1  0
  5  6  1  0
  5  7  2  0
  6  8  1  0
  8  9  1  0
  9 10  1  0
  9 11  2  0
 11 12  1  0
 10 13  1  0
  3 14  1  0
  6 14  1  0
 12 14  2  0
 10 15  2  0
M  END
>  <generation_time>  (75) 
0.9794163703918457

$$$$

     RDKit          3D

 20 22  0  0  0  0  0  0  0  0999 V2000
   25.8847   36.6161  101.8448 O   0  0  0  0  0  0  0  0  0  0  0  0
   26.9203   35.8606  101.9951 C   0  0  0  0  0  0  0  0  0  0  0  0
   27.0628   35.1888  103.3295 N   0  0  0  0  0  0  0  0  0  0  0  0
   25.9781   34.7094  104.0715 C   0  0  0  0  0  0  0  0  0  0  0  0
   26.1444   34.8628  105.4505 C   0  0  0  0  0  0  0  0  0  0  0  0
   24.9650   34.1352  103.5700 C   0  0  0  0  0  0  0  0  0  0  0  0
   28.3806   35.4095  103.8876 C   0  0  0  0  0  0  0  0  0  0  0  0
   24.8111   33.8774  102.1217 F   0  0  0  0  0  0  0  0  0  0  0  0
   24.0016   33.4377  104.3556 C   0  0  0  0  0  0  0  0  0  0  0  0
   24.0521   33.5601  105.7007 C   0  0  0  0  0  0  0  0  0  0  0  0
   29.1476   36.4394  103.4836 O   0  0  0  0  0  0  0  0  0  0  0  0
   27.2253   35.3967  106.0615 C   0  0  0  0  0  0  0  0  0  0  0  0
   28.9556   34.4374  104.6009 N   0  0  0  0  0  0  0  0  0  0  0  0
   25.1433   34.2018  106.2557 C   0  0  0  0  0  0  0  0  0  0  0  0
   28.5055   34.5539  105.9034 C   0  0  0  0  0  0  0  0  0  0  0  0
   29.8932   33.5181  104.1497 C   0  0  0  0  0  0  0  0  0  0  0  0
   29.9411   33.4890  102.7450 C   0  0  0  0  0  0  0  0  0  0  0  0
   31.3727   33.4606  102.2652 C   0  0  0  0  0  0  0  0  0  0  0  0
   32.1606   33.5549  103.4053 N   0  0  0  0  0  0  0  0  0  0  0  0
   31.3872   34.0469  104.5521 C   0  0  0  0  0  0  0  0  0  0  0  0
  1  2  2  0
  2  3  1  0
  3  4  1  0
  4  5  1  0
  4  6  2  0
  3  7  1  0
  6  8  1  0
  6  9  1  0
  9 10  2  0
  7 11  2  0
  5 12  1  0
  7 13  1  0
  5 14  2  0
 10 14  1  0
 12 15  1  0
 13 15  1  0
 13 16  1  0
 16 17  1  0
 17 18  1  0
 18 19  1  0
 16 20  1  0
 19 20  1  0
M  END
>  <generation_time>  (76) 
1.3545358180999756

$$$$

     RDKit          3D

 15 14  0  0  0  0  0  0  0  0999 V2000
   25.4103   35.0501  107.4024 O   0  0  0  0  0  0  0  0  0  0  0  0
   25.4636   34.5011  106.2175 C   0  0  0  0  0  0  0  0  0  0  0  0
   26.1802   35.1324  105.2602 C   0  0  0  0  0  0  0  0  0  0  0  0
   25.5781   35.2649  103.9846 N   0  0  0  0  0  0  0  0  0  0  0  0
   24.5904   34.5363  103.5628 C   0  0  0  0  0  0  0  0  0  0  0  0
   24.8742   33.3244  105.8766 O   0  0  0  0  0  0  0  0  0  0  0  0
   26.7052   35.3953  102.9544 C   0  0  0  0  0  0  0  0  0  0  0  0
   28.0278   35.6918  103.3972 C   0  0  0  0  0  0  0  0  0  0  0  0
   28.7794   34.6025  103.9797 C   0  0  0  0  0  0  0  0  0  0  0  0
   30.0618   34.5358  103.5733 C   0  0  0  0  0  0  0  0  0  0  0  0
   26.3094   36.2951  101.9125 O   0  0  0  0  0  0  0  0  0  0  0  0
   28.5833   36.8675  103.3679 O   0  0  0  0  0  0  0  0  0  0  0  0
   31.0645   34.3760  104.5842 C   0  0  0  0  0  0  0  0  0  0  0  0
   32.3094   33.9914  104.2110 N   0  0  0  0  0  0  0  0  0  0  0  0
   32.5119   33.6868  102.9721 O   0  0  0  0  0  0  0  0  0  0  0  0
  1  2  1  0
  2  3  1  0
  3  4  1  0
  4  5  1  0
  2  6  2  0
  4  7  1  0
  7  8  1  0
  8  9  1  0
  9 10  1  0
  7 11  1  0
  8 12  2  0
 10 13  1  0
 13 14  2  3
 14 15  1  0
M  END
>  <generation_time>  (77) 
1.0554990768432617

$$$$

     RDKit          3D

 14 14  0  0  0  0  0  0  0  0999 V2000
   29.8485   35.7766  103.4969 C   0  0  0  0  0  0  0  0  0  0  0  0
   30.9625   35.2199  103.6148 N   0  0  0  0  0  0  0  0  0  0  0  0
   28.6642   35.1196  103.7502 C   0  0  0  0  0  0  0  0  0  0  0  0
   31.0985   34.0334  104.3478 C   0  0  0  0  0  0  0  0  0  0  0  0
   32.4140   33.4645  104.3832 N   0  0  0  0  0  0  0  0  0  0  0  0
   30.0132   33.3485  104.6435 C   0  0  0  0  0  0  0  0  0  0  0  0
   27.3198   35.6356  103.5885 N   0  0  0  0  0  0  0  0  0  0  0  0
   28.8692   33.9829  104.4068 C   0  0  0  0  0  0  0  0  0  0  0  0
   29.7128   36.9718  102.9841 O   0  0  0  0  0  0  0  0  0  0  0  0
   26.3578   35.4262  104.2500 C   0  0  0  0  0  0  0  0  0  0  0  0
   25.1288   35.0266  103.5426 C   0  0  0  0  0  0  0  0  0  0  0  0
   24.6575   33.7980  103.7348 C   0  0  0  0  0  0  0  0  0  0  0  0
   26.3179   35.0793  105.4944 O   0  0  0  0  0  0  0  0  0  0  0  0
   24.5618   35.7800  102.6331 O   0  0  0  0  0  0  0  0  0  0  0  0
  1  2  1  0
  1  3  1  0
  2  4  2  0
  4  5  1  0
  4  6  1  0
  3  7  1  0
  3  8  2  0
  6  8  1  0
  1  9  2  0
  7 10  1  0
 10 11  1  0
 11 12  1  0
 10 13  2  0
 11 14  2  0
M  END
>  <generation_time>  (78) 
1.0113084316253662

$$$$

     RDKit          3D

 17 17  0  0  0  0  0  0  0  0999 V2000
   26.1725   33.8992  107.5169 O   0  0  0  0  0  0  0  0  0  0  0  0
   25.0147   34.2561  107.2168 C   0  0  0  0  0  0  0  0  0  0  0  0
   24.0940   34.2881  108.0556 O   0  0  0  0  0  0  0  0  0  0  0  0
   24.6511   34.6487  105.8126 C   0  0  0  0  0  0  0  0  0  0  0  0
   25.6309   34.2739  104.8300 N   0  0  0  0  0  0  0  0  0  0  0  0
   25.4104   33.4791  103.7823 C   0  0  0  0  0  0  0  0  0  0  0  0
   26.5587   33.3212  102.9725 C   0  0  0  0  0  0  0  0  0  0  0  0
   27.7603   33.6274  103.5645 N   0  0  0  0  0  0  0  0  0  0  0  0
   24.3975   32.8498  103.5860 O   0  0  0  0  0  0  0  0  0  0  0  0
   28.1826   34.9319  103.8306 C   0  0  0  0  0  0  0  0  0  0  0  0
   27.4611   35.9423  103.8017 O   0  0  0  0  0  0  0  0  0  0  0  0
   29.6273   35.1884  104.2285 C   0  0  0  0  0  0  0  0  0  0  0  0
   30.3105   33.9966  104.6641 C   0  0  0  0  0  0  0  0  0  0  0  0
   30.3272   35.8722  103.2513 C   0  0  0  0  0  0  0  0  0  0  0  0
   31.7254   34.2178  104.2569 C   0  0  0  0  0  0  0  0  0  0  0  0
   32.4021   33.1900  103.7181 O   0  0  0  0  0  0  0  0  0  0  0  0
   31.6256   35.3824  103.3874 N   0  0  0  0  0  0  0  0  0  0  0  0
  1  2  2  0
  2  3  1  0
  2  4  1  0
  4  5  1  0
  5  6  1  0
  6  7  1  0
  7  8  1  0
  6  9  2  0
  8 10  1  0
 10 11  2  0
 10 12  1  0
 12 13  1  0
 12 14  1  0
 13 15  1  0
 15 16  1  0
 14 17  1  0
 15 17  1  0
M  END
>  <generation_time>  (79) 
1.0671558380126953

$$$$

     RDKit          3D

 14 15  0  0  0  0  0  0  0  0999 V2000
   29.5876   35.2744  104.3972 C   0  0  0  0  0  0  0  0  0  0  0  0
   30.8621   35.3348  104.2971 N   0  0  0  0  0  0  0  0  0  0  0  0
   31.5807   34.1982  103.9415 C   0  0  0  0  0  0  0  0  0  0  0  0
   28.7992   36.2451  103.6287 N   0  0  0  0  0  0  0  0  0  0  0  0
   32.4085   33.6926  104.6669 N   0  0  0  0  0  0  0  0  0  0  0  0
   28.8890   34.0175  104.5189 N   0  0  0  0  0  0  0  0  0  0  0  0
   27.5627   34.2643  103.8714 C   0  0  0  0  0  0  0  0  0  0  0  0
   31.3773   33.4090  102.7835 C   0  0  0  0  0  0  0  0  0  0  0  0
   26.4086   33.4775  104.0556 C   0  0  0  0  0  0  0  0  0  0  0  0
   27.5139   35.6039  103.4801 C   0  0  0  0  0  0  0  0  0  0  0  0
   26.4715   35.9846  102.8358 N   0  0  0  0  0  0  0  0  0  0  0  0
   25.3874   35.1341  102.7691 C   0  0  0  0  0  0  0  0  0  0  0  0
   24.2045   35.6427  102.0259 C   0  0  0  0  0  0  0  0  0  0  0  0
   25.3527   33.9394  103.3274 C   0  0  0  0  0  0  0  0  0  0  0  0
  1  2  1  0
  2  3  1  0
  1  4  1  0
  3  5  2  0
  1  6  2  0
  6  7  1  0
  3  8  1  0
  7  9  2  0
  4 10  1  0
  7 10  1  0
 10 11  2  0
 11 12  1  0
 12 13  1  0
  9 14  1  0
 12 14  2  0
M  END
>  <generation_time>  (80) 
1.0477902889251709

$$$$

     RDKit          3D

 18 19  0  0  0  0  0  0  0  0999 V2000
   32.3987   33.5504  102.7692 O   0  0  0  0  0  0  0  0  0  0  0  0
   31.7799   33.8753  103.8709 C   0  0  0  0  0  0  0  0  0  0  0  0
   30.4230   34.2916  103.8166 C   0  0  0  0  0  0  0  0  0  0  0  0
   30.0516   35.6133  103.7119 C   0  0  0  0  0  0  0  0  0  0  0  0
   28.7012   36.0920  103.5956 N   0  0  0  0  0  0  0  0  0  0  0  0
   27.7093   35.2945  103.7529 C   0  0  0  0  0  0  0  0  0  0  0  0
   29.1824   33.3590  104.0884 C   0  0  0  0  0  0  0  0  0  0  0  0
   27.9287   33.9134  103.9582 N   0  0  0  0  0  0  0  0  0  0  0  0
   26.3382   35.7061  103.7123 N   0  0  0  0  0  0  0  0  0  0  0  0
   32.3049   33.5833  104.9893 N   0  0  0  0  0  0  0  0  0  0  0  0
   25.3739   35.1413  104.4843 C   0  0  0  0  0  0  0  0  0  0  0  0
   25.8550   36.3253  102.4906 C   0  0  0  0  0  0  0  0  0  0  0  0
   24.4548   34.2997  104.0647 C   0  0  0  0  0  0  0  0  0  0  0  0
   24.6376   35.9669  102.0932 O   0  0  0  0  0  0  0  0  0  0  0  0
   24.6906   36.2187  105.2543 O   0  0  0  0  0  0  0  0  0  0  0  0
   24.4256   36.1351  100.6796 C   0  0  0  0  0  0  0  0  0  0  0  0
   25.4520   36.5584  100.1652 C   0  0  0  0  0  0  0  0  0  0  0  0
   26.5392   36.4873  101.2205 C   0  0  0  0  0  0  0  0  0  0  0  0
  1  2  2  0
  2  3  1  0
  3  4  2  0
  4  5  1  0
  5  6  2  0
  3  7  1  0
  6  8  1  0
  7  8  2  0
  6  9  1  0
  2 10  1  0
  9 11  1  0
  9 12  1  0
 11 13  1  0
 12 14  1  0
 11 15  1  0
 14 16  1  0
 16 17  2  0
 12 18  1  0
 17 18  1  0
M  END
>  <generation_time>  (81) 
1.2518556118011475

$$$$

     RDKit          3D

 18 18  0  0  0  0  0  0  0  0999 V2000
   27.9571   34.2256  104.2696 N   0  0  0  0  0  0  0  0  0  0  0  0
   29.0746   34.7144  103.9571 C   0  0  0  0  0  0  0  0  0  0  0  0
   26.8082   34.8699  103.8877 C   0  0  0  0  0  0  0  0  0  0  0  0
   25.6040   34.3468  104.4375 C   0  0  0  0  0  0  0  0  0  0  0  0
   26.7768   35.1860  102.6159 O   0  0  0  0  0  0  0  0  0  0  0  0
   29.2916   35.8384  103.2512 O   0  0  0  0  0  0  0  0  0  0  0  0
   30.3483   33.9165  104.1440 C   0  0  0  0  0  0  0  0  0  0  0  0
   25.3739   35.4088  102.2500 C   0  0  0  0  0  0  0  0  0  0  0  0
   24.5618   34.8042  103.3449 C   0  0  0  0  0  0  0  0  0  0  0  0
   25.0508   36.7081  101.9157 O   0  0  0  0  0  0  0  0  0  0  0  0
   23.8431   35.9000  103.9675 O   0  0  0  0  0  0  0  0  0  0  0  0
   30.8728   33.5248  102.8031 C   0  0  0  0  0  0  0  0  0  0  0  0
   31.5333   34.6847  104.7670 C   0  0  0  0  0  0  0  0  0  0  0  0
   32.2187   33.9072  102.6306 O   0  0  0  0  0  0  0  0  0  0  0  0
   25.1483   34.6266  105.7609 N   0  0  0  0  0  0  0  0  0  0  0  0
   25.4675   33.8530  106.7896 C   0  0  0  0  0  0  0  0  0  0  0  0
   25.9345   32.8307  106.8608 O   0  0  0  0  0  0  0  0  0  0  0  0
   25.0422   34.6084  108.0597 N   0  0  0  0  0  0  0  0  0  0  0  0
  1  2  1  0
  1  3  1  0
  3  4  1  0
  3  5  1  0
  2  6  2  0
  2  7  1  0
  5  8  1  0
  4  9  1  0
  8  9  1  0
  8 10  1  0
  9 11  1  0
  7 12  1  0
  7 13  1  0
 12 14  1  0
  4 15  1  0
 15 16  1  0
 16 17  2  0
 16 18  1  0
M  END
>  <generation_time>  (82) 
1.2275478839874268

$$$$

     RDKit          3D

 15 14  0  0  0  0  0  0  0  0999 V2000
   23.3970   34.4608  104.9448 O   0  0  0  0  0  0  0  0  0  0  0  0
   24.6861   34.2345  104.6261 C   0  0  0  0  0  0  0  0  0  0  0  0
   25.0441   33.1278  104.4936 O   0  0  0  0  0  0  0  0  0  0  0  0
   25.4598   35.3502  104.0828 N   0  0  0  0  0  0  0  0  0  0  0  0
   26.8237   35.3804  104.4295 C   0  0  0  0  0  0  0  0  0  0  0  0
   24.6661   32.3463  103.3839 C   0  0  0  0  0  0  0  0  0  0  0  0
   27.8099   35.8201  103.5409 C   0  0  0  0  0  0  0  0  0  0  0  0
   29.1960   35.5533  103.8140 C   0  0  0  0  0  0  0  0  0  0  0  0
   27.5029   36.3216  102.3786 O   0  0  0  0  0  0  0  0  0  0  0  0
   29.6864   34.3700  104.2043 C   0  0  0  0  0  0  0  0  0  0  0  0
   29.9508   36.6802  103.7059 O   0  0  0  0  0  0  0  0  0  0  0  0
   31.1645   34.1985  104.1412 C   0  0  0  0  0  0  0  0  0  0  0  0
   31.7002   33.9664  102.8575 C   0  0  0  0  0  0  0  0  0  0  0  0
   32.8000   33.6430  102.7131 O   0  0  0  0  0  0  0  0  0  0  0  0
   30.9318   33.9455  101.8823 O   0  0  0  0  0  0  0  0  0  0  0  0
  1  2  2  0
  2  3  1  0
  2  4  1  0
  4  5  1  0
  3  6  1  0
  5  7  1  0
  7  8  1  0
  7  9  2  0
  8 10  1  0
  8 11  2  0
 10 12  1  0
 12 13  1  0
 13 14  1  0
 13 15  2  0
M  END
>  <generation_time>  (83) 
0.94587612152099609

$$$$

     RDKit          3D

 17 19  0  0  0  0  0  0  0  0999 V2000
   24.7838   36.5800  100.9197 C   0  0  0  0  0  0  0  0  0  0  0  0
   25.7355   35.8958  101.7313 C   0  0  0  0  0  0  0  0  0  0  0  0
   27.0635   36.0520  101.5574 N   0  0  0  0  0  0  0  0  0  0  0  0
   25.2398   34.9785  102.6714 C   0  0  0  0  0  0  0  0  0  0  0  0
   27.8961   35.5410  102.5116 C   0  0  0  0  0  0  0  0  0  0  0  0
   23.8927   34.6649  102.7400 C   0  0  0  0  0  0  0  0  0  0  0  0
   29.2543   35.7180  102.5550 N   0  0  0  0  0  0  0  0  0  0  0  0
   27.2531   34.5696  103.4641 C   0  0  0  0  0  0  0  0  0  0  0  0
   29.8684   34.9917  103.5448 C   0  0  0  0  0  0  0  0  0  0  0  0
   28.3545   34.0347  104.4088 N   0  0  0  0  0  0  0  0  0  0  0  0
   26.0791   34.2968  103.6386 C   0  0  0  0  0  0  0  0  0  0  0  0
   29.5026   34.3599  104.3739 C   0  0  0  0  0  0  0  0  0  0  0  0
   30.4654   33.7188  105.3260 C   0  0  0  0  0  0  0  0  0  0  0  0
   31.3185   35.4327  103.3627 C   0  0  0  0  0  0  0  0  0  0  0  0
   31.8088   36.0050  102.3079 O   0  0  0  0  0  0  0  0  0  0  0  0
   32.2350   34.7097  104.1895 N   0  0  0  0  0  0  0  0  0  0  0  0
   31.7479   33.9272  105.2083 C   0  0  0  0  0  0  0  0  0  0  0  0
  1  2  1  0
  2  3  2  0
  2  4  1  0
  3  5  1  0
  4  6  1  0
  5  7  1  0
  5  8  2  0
  7  9  2  0
  8 10  1  0
  4 11  2  0
  8 11  1  0
  9 12  1  0
 10 12  2  0
 12 13  1  0
  9 14  1  0
 14 15  2  0
 14 16  1  0
 13 17  2  0
 16 17  1  0
M  END
>  <generation_time>  (84) 
1.1720285415649414

$$$$

     RDKit          3D

 18 19  0  0  0  0  0  0  0  0999 V2000
   25.7382   36.2364  101.3284 C   0  0  0  0  0  0  0  0  0  0  0  0
   25.5480   35.3957  102.2832 C   0  0  0  0  0  0  0  0  0  0  0  0
   24.6458   36.6251  100.5057 C   0  0  0  0  0  0  0  0  0  0  0  0
   26.6326   34.7886  103.0562 N   0  0  0  0  0  0  0  0  0  0  0  0
   23.7728   35.5384  100.4107 C   0  0  0  0  0  0  0  0  0  0  0  0
   26.3056   33.8037  103.9992 C   0  0  0  0  0  0  0  0  0  0  0  0
   23.8813   34.7426  101.2424 C   0  0  0  0  0  0  0  0  0  0  0  0
   27.7626   35.3983  103.2836 C   0  0  0  0  0  0  0  0  0  0  0  0
   24.9962   33.2404  103.8848 C   0  0  0  0  0  0  0  0  0  0  0  0
   24.6003   34.5245  102.1658 C   0  0  0  0  0  0  0  0  0  0  0  0
   28.9061   34.6352  103.5280 C   0  0  0  0  0  0  0  0  0  0  0  0
   24.5907   32.2897  104.7715 O   0  0  0  0  0  0  0  0  0  0  0  0
   28.0156   36.5997  102.8834 O   0  0  0  0  0  0  0  0  0  0  0  0
   24.1560   33.6934  103.0100 N   0  0  0  0  0  0  0  0  0  0  0  0
   30.2417   35.1216  103.3749 C   0  0  0  0  0  0  0  0  0  0  0  0
   31.2575   34.2704  103.8816 C   0  0  0  0  0  0  0  0  0  0  0  0
   31.6868   34.4722  105.1174 O   0  0  0  0  0  0  0  0  0  0  0  0
   31.3939   33.0145  103.5256 O   0  0  0  0  0  0  0  0  0  0  0  0
  1  2  1  0
  1  3  2  0
  2  4  1  0
  3  5  1  0
  4  6  1  0
  5  7  2  0
  4  8  1  0
  6  9  1  0
  2 10  2  0
  7 10  1  0
  8 11  1  0
  9 12  2  0
  8 13  2  0
  9 14  1  0
 10 14  1  0
 11 15  1  0
 15 16  1  0
 16 17  1  0
 16 18  2  0
M  END
>  <generation_time>  (85) 
1.2747664451599121

$$$$

     RDKit          3D

 21 23  0  0  0  0  0  0  0  0999 V2000
   22.8142   33.6237  105.0002 O   0  0  0  0  0  0  0  0  0  0  0  0
   23.9848   33.7439  105.0062 C   0  0  0  0  0  0  0  0  0  0  0  0
   24.6864   34.5505  105.9442 N   0  0  0  0  0  0  0  0  0  0  0  0
   24.6813   33.2220  103.7836 C   0  0  0  0  0  0  0  0  0  0  0  0
   25.8508   34.1044  103.3877 C   0  0  0  0  0  0  0  0  0  0  0  0
   25.6565   35.2238  102.5807 C   0  0  0  0  0  0  0  0  0  0  0  0
   27.1985   33.8239  103.5888 C   0  0  0  0  0  0  0  0  0  0  0  0
   26.1512   34.6475  105.9917 C   0  0  0  0  0  0  0  0  0  0  0  0
   26.4918   34.4906  107.3577 C   0  0  0  0  0  0  0  0  0  0  0  0
   24.0719   35.1861  107.0494 C   0  0  0  0  0  0  0  0  0  0  0  0
   27.0783   33.6738  105.3522 C   0  0  0  0  0  0  0  0  0  0  0  0
   25.0926   34.6374  108.1117 C   0  0  0  0  0  0  0  0  0  0  0  0
   28.1360   34.9485  103.5369 C   0  0  0  0  0  0  0  0  0  0  0  0
   29.5781   34.8017  103.9383 N   0  0  0  0  0  0  0  0  0  0  0  0
   27.8982   36.0035  102.7322 N   0  0  0  0  0  0  0  0  0  0  0  0
   30.5010   34.7851  103.0632 C   0  0  0  0  0  0  0  0  0  0  0  0
   26.7207   36.1375  102.3009 C   0  0  0  0  0  0  0  0  0  0  0  0
   31.6806   33.9773  103.4578 C   0  0  0  0  0  0  0  0  0  0  0  0
   26.2231   36.8964  101.3871 O   0  0  0  0  0  0  0  0  0  0  0  0
   32.1052   34.0643  104.7273 O   0  0  0  0  0  0  0  0  0  0  0  0
   32.6103   33.8512  102.4844 O   0  0  0  0  0  0  0  0  0  0  0  0
  1  2  2  0
  2  3  1  0
  2  4  1  0
  4  5  1  0
  5  6  2  0
  5  7  1  0
  3  8  1  0
  8  9  1  0
  3 10  1  0
  7 11  1  0
  8 11  1  0
  9 12  1  0
 10 12  1  0
  7 13  1  0
 13 14  1  0
 13 15  2  0
 14 16  1  0
  6 17  1  0
 15 17  1  0
 16 18  1  0
 17 19  2  0
 18 20  1  0
 18 21  1  0
M  END
>  <generation_time>  (86) 
1.5306980609893799

$$$$

     RDKit          3D

 21 23  0  0  0  0  0  0  0  0999 V2000
   27.9571   34.2256  104.2696 N   0  0  0  0  0  0  0  0  0  0  0  0
   26.9524   34.8460  103.6712 C   0  0  0  0  0  0  0  0  0  0  0  0
   25.5668   34.3165  104.0050 C   0  0  0  0  0  0  0  0  0  0  0  0
   24.8104   34.0349  103.0027 O   0  0  0  0  0  0  0  0  0  0  0  0
   25.1673   34.1462  105.2118 N   0  0  0  0  0  0  0  0  0  0  0  0
   27.1552   35.7865  102.7914 C   0  0  0  0  0  0  0  0  0  0  0  0
   28.4036   36.2508  102.5561 N   0  0  0  0  0  0  0  0  0  0  0  0
   29.1132   34.7590  103.8443 C   0  0  0  0  0  0  0  0  0  0  0  0
   29.4003   35.7438  103.0981 C   0  0  0  0  0  0  0  0  0  0  0  0
   30.7657   36.0492  103.0473 N   0  0  0  0  0  0  0  0  0  0  0  0
   23.8733   33.7256  105.6668 C   0  0  0  0  0  0  0  0  0  0  0  0
   23.7891   33.3813  106.9356 C   0  0  0  0  0  0  0  0  0  0  0  0
   30.1945   33.9560  104.7129 C   0  0  0  0  0  0  0  0  0  0  0  0
   31.7188   35.3865  103.5983 C   0  0  0  0  0  0  0  0  0  0  0  0
   22.7537   34.6681  105.4041 C   0  0  0  0  0  0  0  0  0  0  0  0
   21.5828   33.9695  105.8921 C   0  0  0  0  0  0  0  0  0  0  0  0
   31.5040   34.2542  104.3339 C   0  0  0  0  0  0  0  0  0  0  0  0
   24.7508   33.9778  107.7761 C   0  0  0  0  0  0  0  0  0  0  0  0
   22.2363   33.6148  107.2773 C   0  0  0  0  0  0  0  0  0  0  0  0
   25.9340   33.9128  107.4568 O   0  0  0  0  0  0  0  0  0  0  0  0
   24.3644   34.7051  108.8236 O   0  0  0  0  0  0  0  0  0  0  0  0
  1  2  1  0
  2  3  1  0
  3  4  2  0
  3  5  1  0
  2  6  2  0
  6  7  1  0
  1  8  2  0
  7  9  2  0
  8  9  1  0
  9 10  1  0
  5 11  1  0
 11 12  1  0
  8 13  1  0
 10 14  2  0
 11 15  1  0
 15 16  1  0
 13 17  2  0
 14 17  1  0
 12 18  1  0
 12 19  1  0
 16 19  1  0
 18 20  2  0
 18 21  1  0
M  END
>  <generation_time>  (87) 
1.5716242790222168

$$$$

     RDKit          3D

 19 19  0  0  0  0  0  0  0  0999 V2000
   32.3987   33.5504  102.7692 O   0  0  0  0  0  0  0  0  0  0  0  0
   31.7799   33.8753  103.8709 C   0  0  0  0  0  0  0  0  0  0  0  0
   32.3157   33.7656  104.9522 O   0  0  0  0  0  0  0  0  0  0  0  0
   30.3664   34.3360  103.7680 C   0  0  0  0  0  0  0  0  0  0  0  0
   29.2716   33.4448  103.6579 C   0  0  0  0  0  0  0  0  0  0  0  0
   29.9528   35.6768  103.8808 C   0  0  0  0  0  0  0  0  0  0  0  0
   27.9602   33.7712  103.5917 C   0  0  0  0  0  0  0  0  0  0  0  0
   28.6579   36.1177  103.7271 N   0  0  0  0  0  0  0  0  0  0  0  0
   27.7290   35.1568  103.5635 C   0  0  0  0  0  0  0  0  0  0  0  0
   26.2502   35.6179  103.5337 N   0  0  0  0  0  0  0  0  0  0  0  0
   25.6547   35.6316  102.2426 C   0  0  0  0  0  0  0  0  0  0  0  0
   24.4348   35.1349  102.1175 O   0  0  0  0  0  0  0  0  0  0  0  0
   25.9323   36.7099  101.2888 C   0  0  0  0  0  0  0  0  0  0  0  0
   25.6784   35.6183  104.7942 C   0  0  0  0  0  0  0  0  0  0  0  0
   25.1605   34.3615  105.3974 C   0  0  0  0  0  0  0  0  0  0  0  0
   24.0871   33.8579  105.0024 O   0  0  0  0  0  0  0  0  0  0  0  0
   25.6132   34.1668  106.6445 N   0  0  0  0  0  0  0  0  0  0  0  0
   26.6576   34.8439  107.1592 C   0  0  0  0  0  0  0  0  0  0  0  0
   25.0360   33.1283  107.5048 C   0  0  0  0  0  0  0  0  0  0  0  0
  1  2  2  0
  2  3  1  0
  2  4  1  0
  4  5  2  0
  4  6  1  0
  5  7  1  0
  6  8  2  0
  7  9  2  0
  8  9  1  0
  9 10  1  0
 10 11  1  0
 11 12  2  0
 11 13  1  0
 10 14  1  0
 14 15  1  0
 15 16  2  0
 15 17  1  0
 17 18  1  0
 17 19  1  0
M  END
>  <generation_time>  (88) 
1.1293609142303467

$$$$
